
  EPA STORM WATER MANAGEMENT MODEL - VERSION 5.1 (Build 5.1.013)
  --------------------------------------------------------------

  wlkxc SWMM 
  
  WARNING 04: minimum elevation drop used for Conduit YJ12-1.1
  
  *********************************************************
  NOTE: The summary statistics displayed in this report are
  based on results found at every computational time step,  
  not just on results from each reporting time step.
  *********************************************************
  
  ****************
  Analysis Options
  ****************
  Flow Units ............... CMS
  Process Models:
    Rainfall/Runoff ........ YES
    RDII ................... NO
    Snowmelt ............... NO
    Groundwater ............ NO
    Flow Routing ........... YES
    Ponding Allowed ........ NO
    Water Quality .......... NO
  Infiltration Method ...... HORTON
  Flow Routing Method ...... DYNWAVE
  Surcharge Method ......... EXTRAN
  Starting Date ............ 07/14/2016 19:05:00
  Ending Date .............. 07/15/2016 12:00:00
  Antecedent Dry Days ...... 0.0
  Report Time Step ......... 00:05:00
  Wet Time Step ............ 00:05:00
  Dry Time Step ............ 01:00:00
  Routing Time Step ........ 20.00 sec
  Variable Time Step ....... YES
  Maximum Trials ........... 8
  Number of Threads ........ 1
  Head Tolerance ........... 0.001500 m
  
  
  **************************        Volume         Depth
  Runoff Quantity Continuity     hectare-m            mm
  **************************     ---------       -------
  Total Precipitation ......        12.111        33.100
  Evaporation Loss .........         0.010         0.027
  Infiltration Loss ........         9.806        26.800
  Surface Runoff ...........         2.161         5.907
  Final Storage ............         0.144         0.393
  Continuity Error (%) .....        -0.079
  
  
  **************************        Volume        Volume
  Flow Routing Continuity        hectare-m      10^6 ltr
  **************************     ---------     ---------
  Dry Weather Inflow .......         0.000         0.000
  Wet Weather Inflow .......         2.159        21.595
  Groundwater Inflow .......         0.000         0.000
  RDII Inflow ..............         0.000         0.000
  External Inflow ..........         0.000         0.000
  External Outflow .........         2.148        21.482
  Flooding Loss ............         0.000         0.000
  Evaporation Loss .........         0.000         0.000
  Exfiltration Loss ........         0.000         0.000
  Initial Stored Volume ....         0.000         0.000
  Final Stored Volume ......         0.010         0.097
  Continuity Error (%) .....         0.075
  
  
  *************************
  Highest Continuity Errors
  *************************
  Node B7 (38.32%)
  Node YE10 (33.63%)
  Node YF8 (29.00%)
  Node Y3 (28.94%)
  Node YC9 (27.76%)
  
  
  ***************************
  Time-Step Critical Elements
  ***************************
  Link B30-1.1 (96.94%)
  Link YD12.1 (1.79%)
  
  
  ********************************
  Highest Flow Instability Indexes
  ********************************
  Link YH35-1.1 (2)
  
  
  *************************
  Routing Time Step Summary
  *************************
  Minimum Time Step           :     1.99 sec
  Average Time Step           :     6.04 sec
  Maximum Time Step           :    20.00 sec
  Percent in Steady State     :     0.00
  Average Iterations per Step :     2.00
  Percent Not Converging      :     0.00
  
  
  ***************************
  Subcatchment Runoff Summary
  ***************************
  
  ------------------------------------------------------------------------------------------------------------------------------
                            Total      Total      Total      Total     Imperv       Perv      Total       Total     Peak  Runoff
                           Precip      Runon       Evap      Infil     Runoff     Runoff     Runoff      Runoff   Runoff   Coeff
  Subcatchment                 mm         mm         mm         mm         mm         mm         mm    10^6 ltr      CMS
  ------------------------------------------------------------------------------------------------------------------------------
  1                         33.10       0.00       0.02      29.36       3.52       0.00       3.52        0.94     0.28   0.106
  2                         33.10       0.00       0.00      31.98       1.06       0.00       1.06        0.04     0.02   0.032
  3                         33.10       0.00       0.00      32.60       0.48       0.00       0.48        0.03     0.02   0.015
  4                         33.10       0.00       0.04      23.85       8.66       0.00       8.66        1.26     0.30   0.262
  5                         33.10       0.00       0.01      31.59       1.44       0.00       1.44        0.18     0.09   0.043
  6                         33.10       0.00       0.09      12.67      19.21       0.00      19.21        0.41     0.12   0.580
  7                         33.10       0.00       0.04      23.92       8.60       0.00       8.60        1.21     0.30   0.260
  8                         33.10       0.00       0.02      28.97       3.90       0.00       3.90        0.16     0.06   0.118
  9                         33.10       0.00       0.04      24.49       8.07       0.00       8.07        1.14     0.28   0.244
  10                        33.10       0.00       0.04      23.43       9.04       0.00       9.04        1.22     0.27   0.273
  11                        33.10       0.00       0.04      22.52       9.90       0.00       9.90        1.16     0.26   0.299
  12                        33.10       0.00       0.06      19.75      12.50       0.00      12.50        1.05     0.25   0.378
  13                        33.10       0.00       0.02      28.87       4.00       0.00       4.00        0.19     0.07   0.121
  14                        33.10       0.00       0.03      26.50       6.19       0.00       6.19        1.14     0.31   0.187
  15                        33.10       0.00       0.03      26.88       5.84       0.00       5.84        0.83     0.22   0.176
  16                        33.10       0.00       0.05      20.68      11.59       0.00      11.59        2.19     0.44   0.350
  17                        33.10       0.00       0.04      23.91       8.63       0.00       8.63        1.10     0.30   0.261
  18                        33.10       0.00       0.05      20.79      11.56       0.00      11.56        0.94     0.26   0.349
  19                        33.10       0.00       0.00      32.05       1.00       0.00       1.00        0.16     0.08   0.030
  20                        33.10       0.00       0.02      27.95       4.85       0.00       4.85        0.24     0.07   0.146
  21                        33.10       0.00       0.02      29.28       3.59       0.00       3.59        0.41     0.11   0.108
  22                        33.10       0.00       0.01      30.10       2.82       0.00       2.82        0.52     0.14   0.085
  23                        33.10       0.00       0.01      30.30       2.64       0.00       2.64        0.35     0.11   0.080
  24                        33.10       0.00       0.01      30.45       2.49       0.00       2.49        0.40     0.11   0.075
  25                        33.10       0.00       0.00      32.78       0.30       0.00       0.30        0.01     0.01   0.009
  26                        33.10       0.00       0.05      20.49      11.80       0.00      11.80        1.28     0.28   0.356
  27                        33.10       0.00       0.01      31.90       1.14       0.00       1.14        0.20     0.08   0.034
  28                        33.10       0.00       0.04      24.68       7.88       0.00       7.88        1.35     0.31   0.238
  29                        33.10       0.00       0.08      14.95      16.95       0.00      16.95        1.21     0.26   0.512
  30                        33.10       0.00       0.01      31.49       1.52       0.00       1.52        0.33     0.13   0.046
  
  
  ******************
  Node Depth Summary
  ******************
  
  ---------------------------------------------------------------------------------
                                 Average  Maximum  Maximum  Time of Max    Reported
                                   Depth    Depth      HGL   Occurrence   Max Depth
  Node                 Type       Meters   Meters   Meters  days hr:min      Meters
  ---------------------------------------------------------------------------------
  YM16                 JUNCTION     0.15     0.50    27.99     0  00:48        0.49
  YJ3                  JUNCTION     0.00     0.00    28.39     0  00:00        0.00
  YH27                 JUNCTION     0.18     0.58    28.04     0  00:49        0.58
  YH27-3               JUNCTION     0.00     0.00    28.39     0  00:00        0.00
  YH27-2               JUNCTION     0.00     0.00    28.48     0  00:00        0.00
  YH27-1               JUNCTION     0.00     0.00    28.56     0  00:00        0.00
  YL1                  JUNCTION     0.00     0.00    28.22     0  00:00        0.00
  YL1-1                JUNCTION     0.00     0.00    28.55     0  00:00        0.00
  YL1-2                JUNCTION     0.00     0.00    28.55     0  00:00        0.00
  YL2                  JUNCTION     0.00     0.00    28.19     0  00:00        0.00
  YL3                  JUNCTION     0.00     0.00    28.15     0  00:00        0.00
  YL4                  JUNCTION     0.00     0.00    28.11     0  00:00        0.00
  YL6                  JUNCTION     0.17     0.57    27.94     0  00:45        0.57
  YL7                  JUNCTION     0.16     0.56    27.90     0  00:45        0.56
  YL8                  JUNCTION     0.16     0.53    27.84     0  00:46        0.53
  YL9                  JUNCTION     0.16     0.48    27.76     0  00:47        0.47
  YL10-1               JUNCTION     0.00     0.00    27.97     0  00:00        0.00
  YL10                 JUNCTION     0.17     0.59    27.64     0  00:49        0.59
  YL10-2               JUNCTION     0.00     0.00    28.08     0  00:00        0.00
  YL12                 JUNCTION     0.17     0.60    27.60     0  00:52        0.60
  YL11                 JUNCTION     0.17     0.59    27.61     0  00:50        0.59
  YL13                 JUNCTION     0.17     0.62    27.58     0  00:52        0.61
  B20-1                JUNCTION     0.17     0.63    27.57     0  00:52        0.62
  YI2                  JUNCTION     0.00     0.00    28.09     0  00:00        0.00
  YX13                 JUNCTION     0.00     0.00    28.22     0  00:00        0.00
  YX12                 JUNCTION     0.00     0.00    28.25     0  00:00        0.00
  YX11                 JUNCTION     0.00     0.00    28.29     0  00:00        0.00
  YX10                 JUNCTION     0.00     0.00    28.33     0  00:00        0.00
  YX9                  JUNCTION     0.00     0.00    28.36     0  00:00        0.00
  YX8                  JUNCTION     0.00     0.00    28.40     0  00:00        0.00
  YX7                  JUNCTION     0.00     0.00    28.44     0  00:00        0.00
  YX6                  JUNCTION     0.00     0.00    28.48     0  00:00        0.00
  YX5                  JUNCTION     0.00     0.00    29.01     0  00:00        0.00
  YX4                  JUNCTION     0.00     0.00    29.08     0  00:00        0.00
  YX3                  JUNCTION     0.00     0.00    29.14     0  00:00        0.00
  YX2                  JUNCTION     0.00     0.00    29.20     0  00:00        0.00
  YX1                  JUNCTION     0.00     0.00    29.55     0  00:00        0.00
  YW10                 JUNCTION     0.05     0.24    28.53     0  00:40        0.24
  YW9                  JUNCTION     0.01     0.18    28.53     0  00:40        0.18
  YW8                  JUNCTION     0.00     0.00    29.65     0  00:00        0.00
  YW7                  JUNCTION     0.00     0.00    29.68     0  00:00        0.00
  YW6                  JUNCTION     0.00     0.00    30.01     0  00:00        0.00
  YW5                  JUNCTION     0.00     0.00    30.08     0  00:00        0.00
  YK1                  JUNCTION     0.00     0.00    32.06     0  00:00        0.00
  YK2                  JUNCTION     0.00     0.00    30.45     0  00:00        0.00
  YK3                  JUNCTION     0.00     0.00    29.70     0  00:00        0.00
  YK4                  JUNCTION     0.00     0.00    29.67     0  00:00        0.00
  YK5                  JUNCTION     0.00     0.00    28.75     0  00:00        0.00
  YK6                  JUNCTION     0.00     0.00    28.72     0  00:00        0.00
  YK7                  JUNCTION     0.00     0.00    28.68     0  00:00        0.00
  YK8                  JUNCTION     0.00     0.00    28.65     0  00:00        0.00
  YK3-1                JUNCTION     0.00     0.00    30.33     0  00:00        0.00
  YK3-2                JUNCTION     0.00     0.00    29.92     0  00:00        0.00
  YK8-2                JUNCTION     0.00     0.00    28.83     0  00:00        0.00
  YK8-1                JUNCTION     0.00     0.00    28.83     0  00:00        0.00
  YK9                  JUNCTION     0.00     0.00    28.61     0  00:00        0.00
  YK10                 JUNCTION     0.13     0.49    28.51     0  00:41        0.48
  YK11                 JUNCTION     0.12     0.47    28.47     0  00:42        0.47
  YK12                 JUNCTION     0.12     0.47    28.43     0  00:43        0.46
  YK13                 JUNCTION     0.12     0.46    28.39     0  00:43        0.46
  YK14                 JUNCTION     0.12     0.45    28.35     0  00:44        0.45
  YK14-2               JUNCTION     0.00     0.00    28.63     0  00:00        0.00
  YK14-1               JUNCTION     0.00     0.00    28.73     0  00:00        0.00
  YK15                 JUNCTION     0.12     0.42    28.28     0  00:44        0.42
  YK17                 JUNCTION     0.12     0.36    28.18     0  00:45        0.36
  YL5                  JUNCTION     0.17     0.58    27.97     0  00:45        0.58
  YN10-1               JUNCTION     0.00     0.00    29.68     0  00:00        0.00
  YN10-2               JUNCTION     0.00     0.00    28.82     0  00:00        0.00
  YN10-3               JUNCTION     0.00     0.00    28.26     0  00:00        0.00
  YN10-4               JUNCTION     0.00     0.00    27.88     0  00:00        0.00
  YN10-4-1             JUNCTION     0.00     0.00    27.90     0  00:00        0.00
  YN10-5               JUNCTION     0.00     0.00    27.83     0  00:00        0.00
  YN10-6               JUNCTION     0.00     0.00    27.79     0  00:00        0.00
  YN10-7               JUNCTION     0.02     0.13    27.37     0  00:35        0.13
  YN10-7-1             JUNCTION     0.00     0.00    27.77     0  00:00        0.00
  YN10-8               JUNCTION     0.02     0.13    27.32     0  00:36        0.12
  YN10-9               JUNCTION     0.03     0.13    27.27     0  00:40        0.13
  YN10-10              JUNCTION     0.02     0.12    26.67     0  00:41        0.12
  YN10-10-1            JUNCTION     0.00     0.00    27.31     0  00:00        0.00
  YN10-11              JUNCTION     0.02     0.12    26.63     0  00:42        0.11
  YN10-12              JUNCTION     0.02     0.12    26.59     0  00:43        0.12
  YN10-13              JUNCTION     0.04     0.12    26.55     0  00:49        0.12
  YN10                 JUNCTION     0.02     0.08    26.24     0  00:46        0.08
  YW4                  JUNCTION     0.00     0.00    30.15     0  00:00        0.00
  YW3                  JUNCTION     0.00     0.00    30.21     0  00:00        0.00
  YW2                  JUNCTION     0.00     0.00    30.90     0  00:00        0.00
  YW1                  JUNCTION     0.00     0.00    30.98     0  00:00        0.00
  YV13                 JUNCTION     0.06     0.24    29.57     0  00:44        0.24
  YV12                 JUNCTION     0.02     0.19    29.58     0  00:44        0.19
  YV11                 JUNCTION     0.01     0.16    29.58     0  00:43        0.16
  YV10                 JUNCTION     0.01     0.13    29.58     0  00:43        0.12
  YV9                  JUNCTION     0.00     0.09    29.58     0  00:43        0.09
  YV8                  JUNCTION     0.00     0.00    29.63     0  00:00        0.00
  YV7                  JUNCTION     0.00     0.00    29.68     0  00:00        0.00
  YV6                  JUNCTION     0.00     0.00    29.72     0  00:00        0.00
  YV5                  JUNCTION     0.00     0.00    29.77     0  00:00        0.00
  YV4                  JUNCTION     0.00     0.00    29.81     0  00:00        0.00
  YV4-1                JUNCTION     0.00     0.00    29.89     0  00:00        0.00
  YV3                  JUNCTION     0.00     0.00    30.27     0  00:00        0.00
  YV3-1                JUNCTION     0.00     0.00    30.30     0  00:00        0.00
  YV2                  JUNCTION     0.00     0.00    30.33     0  00:00        0.00
  YV1                  JUNCTION     0.00     0.00    30.40     0  00:00        0.00
  YV9-1                JUNCTION     0.00     0.00    29.71     0  00:00        0.00
  YH8                  JUNCTION     0.01     0.29    29.59     0  00:42        0.29
  YH7                  JUNCTION     0.00     0.00    29.94     0  00:00        0.00
  YH6                  JUNCTION     0.00     0.00    29.99     0  00:00        0.00
  YH5                  JUNCTION     0.00     0.00    30.73     0  00:00        0.00
  YH4                  JUNCTION     0.00     0.00    31.41     0  00:00        0.00
  YH3                  JUNCTION     0.00     0.00    31.99     0  00:00        0.00
  YH2                  JUNCTION     0.00     0.00    32.57     0  00:00        0.00
  YH1                  JUNCTION     0.00     0.00    33.14     0  00:00        0.00
  YH9                  JUNCTION     0.02     0.33    29.59     0  00:43        0.33
  YH10                 JUNCTION     0.10     0.48    29.59     0  00:43        0.48
  YH10-1               JUNCTION     0.02     0.35    29.59     0  00:43        0.34
  YH11                 JUNCTION     0.13     0.51    29.59     0  00:42        0.51
  YH12                 JUNCTION     0.13     0.51    29.56     0  00:43        0.50
  YH13                 JUNCTION     0.13     0.49    29.50     0  00:44        0.49
  YH14                 JUNCTION     0.13     0.47    29.44     0  00:44        0.47
  YH15                 JUNCTION     0.14     0.43    29.37     0  00:44        0.43
  YH16                 JUNCTION     0.12     0.47    28.56     0  00:46        0.47
  YH17                 JUNCTION     0.12     0.47    28.52     0  00:47        0.46
  YH18                 JUNCTION     0.12     0.46    28.47     0  00:47        0.46
  YH19                 JUNCTION     0.12     0.45    28.42     0  00:48        0.45
  YH20                 JUNCTION     0.12     0.44    28.36     0  00:48        0.43
  YH21                 JUNCTION     0.13     0.40    28.29     0  00:49        0.40
  YH22                 JUNCTION     0.12     0.49    28.14     0  00:49        0.49
  YH22-1               JUNCTION     0.00     0.00    28.27     0  00:00        0.00
  YH23                 JUNCTION     0.13     0.50    28.11     0  00:50        0.50
  YH24                 JUNCTION     0.13     0.52    28.09     0  00:50        0.52
  YH25                 JUNCTION     0.14     0.55    28.06     0  00:49        0.55
  YH26                 JUNCTION     0.16     0.56    28.05     0  00:49        0.56
  YH28                 JUNCTION     0.18     0.57    27.99     0  00:49        0.57
  YH29                 JUNCTION     0.18     0.54    27.93     0  00:50        0.54
  YH30                 JUNCTION     0.17     0.49    27.85     0  00:51        0.49
  YH31                 JUNCTION     0.19     0.60    27.73     0  00:52        0.60
  YH31-1               JUNCTION     0.03     0.36    27.73     0  00:52        0.36
  YH32                 JUNCTION     0.19     0.60    27.69     0  00:53        0.59
  YH33                 JUNCTION     0.18     0.59    27.65     0  00:53        0.59
  YH34                 JUNCTION     0.18     0.58    27.61     0  00:54        0.58
  YH35                 JUNCTION     0.18     0.57    27.57     0  00:54        0.57
  YH35-1               JUNCTION     0.15     0.54    27.57     0  00:55        0.53
  YH36                 JUNCTION     0.18     0.55    27.52     0  00:55        0.55
  YH37                 JUNCTION     0.17     0.53    27.47     0  00:56        0.53
  YH38                 JUNCTION     0.16     0.51    27.42     0  00:56        0.51
  B30-1                JUNCTION     0.15     0.50    27.38     0  00:56        0.50
  A35-1                JUNCTION     0.18     0.46    27.24     0  00:54        0.46
  YI24                 JUNCTION     0.18     0.49    27.29     0  00:53        0.48
  YI23                 JUNCTION     0.18     0.51    27.33     0  00:50        0.51
  YI23-1               JUNCTION     0.00     0.00    27.79     0  00:00        0.00
  YI22                 JUNCTION     0.18     0.52    27.36     0  00:50        0.52
  YI21                 JUNCTION     0.18     0.54    27.39     0  00:50        0.54
  YI20                 JUNCTION     0.19     0.55    27.42     0  00:50        0.55
  YI19                 JUNCTION     0.19     0.56    27.46     0  00:49        0.56
  YI18                 JUNCTION     0.19     0.56    27.49     0  00:49        0.56
  YI18-1               JUNCTION     0.00     0.00    27.73     0  00:00        0.00
  YI17                 JUNCTION     0.17     0.46    27.62     0  00:47        0.46
  YI16                 JUNCTION     0.17     0.51    27.70     0  00:46        0.50
  YI15                 JUNCTION     0.18     0.52    27.73     0  00:45        0.52
  YJ14                 JUNCTION     0.00     0.05    27.73     0  00:47        0.04
  YI14                 JUNCTION     0.13     0.44    27.75     0  00:46        0.44
  YI14-1               JUNCTION     0.00     0.00    28.48     0  00:00        0.00
  YI13                 JUNCTION     0.13     0.43    27.77     0  00:46        0.43
  YI12                 JUNCTION     0.13     0.42    27.80     0  00:47        0.42
  YI11                 JUNCTION     0.13     0.42    27.84     0  00:47        0.41
  YI10                 JUNCTION     0.13     0.41    27.87     0  00:47        0.41
  YI9                  JUNCTION     0.13     0.41    27.90     0  00:48        0.41
  YG12                 JUNCTION     0.11     0.39    27.90     0  00:48        0.39
  YI8                  JUNCTION     0.01     0.19    27.90     0  00:47        0.18
  YI7                  JUNCTION     0.01     0.15    27.90     0  00:47        0.15
  YI6                  JUNCTION     0.01     0.13    27.90     0  00:47        0.12
  YI5                  JUNCTION     0.00     0.11    27.91     0  00:47        0.09
  YI5-1                JUNCTION     0.00     0.00    28.44     0  00:00        0.00
  YI4                  JUNCTION     0.00     0.00    28.04     0  00:00        0.00
  YI4-1                JUNCTION     0.00     0.00    28.48     0  00:00        0.00
  YI3                  JUNCTION     0.00     0.00    28.07     0  00:00        0.00
  YN1                  JUNCTION     0.00     0.00    28.58     0  00:00        0.00
  YN2                  JUNCTION     0.00     0.00    28.49     0  00:00        0.00
  YN3                  JUNCTION     0.00     0.00    27.90     0  00:00        0.00
  YN4                  JUNCTION     0.00     0.00    26.92     0  00:00        0.00
  YN4-1                JUNCTION     0.00     0.00    26.94     0  00:00        0.00
  YN5                  JUNCTION     0.00     0.00    26.88     0  00:00        0.00
  YN6                  JUNCTION     0.00     0.00    26.84     0  00:00        0.00
  YN7                  JUNCTION     0.00     0.00    26.49     0  00:00        0.00
  YN8                  JUNCTION     0.00     0.00    26.46     0  00:00        0.00
  YN9                  JUNCTION     0.00     0.00    26.43     0  00:00        0.00
  YN11                 JUNCTION     0.03     0.10    26.19     0  00:52        0.09
  YJ13                 JUNCTION     0.00     0.01    27.73     0  00:49        0.01
  YJ12                 JUNCTION     0.00     0.00    27.75     0  00:00        0.00
  YJ12-1               JUNCTION     0.00     0.00    27.75     0  00:00        0.00
  YJ11                 JUNCTION     0.00     0.00    28.11     0  00:00        0.00
  YJ10                 JUNCTION     0.00     0.00    28.17     0  00:00        0.00
  YJ9                  JUNCTION     0.00     0.00    28.23     0  00:00        0.00
  YJ8                  JUNCTION     0.00     0.00    28.29     0  00:00        0.00
  YJ8-1                JUNCTION     0.00     0.00    28.41     0  00:00        0.00
  YJ7                  JUNCTION     0.00     0.00    28.57     0  00:00        0.00
  YJ6                  JUNCTION     0.00     0.00    28.62     0  00:00        0.00
  YJ1                  JUNCTION     0.00     0.00    28.86     0  00:00        0.00
  YJ2                  JUNCTION     0.00     0.00    28.78     0  00:00        0.00
  YJ3-1                JUNCTION     0.00     0.00    28.41     0  00:00        0.00
  YJ4                  JUNCTION     0.00     0.00    28.35     0  00:00        0.00
  YJ5                  JUNCTION     0.00     0.00    28.30     0  00:00        0.00
  YE1                  JUNCTION     0.00     0.00    29.97     0  00:00        0.00
  YE2                  JUNCTION     0.00     0.00    29.89     0  00:00        0.00
  YE3                  JUNCTION     0.00     0.00    29.31     0  00:00        0.00
  YE3-1                JUNCTION     0.00     0.00    29.53     0  00:00        0.00
  YE3-2                JUNCTION     0.00     0.00    29.53     0  00:00        0.00
  YE4                  JUNCTION     0.00     0.00    29.27     0  00:00        0.00
  YE5                  JUNCTION     0.00     0.00    29.23     0  00:00        0.00
  YE6                  JUNCTION     0.00     0.00    29.20     0  00:00        0.00
  YE7                  JUNCTION     0.00     0.00    29.16     0  00:00        0.00
  YE8                  JUNCTION     0.00     0.00    28.91     0  00:00        0.00
  YE8-1                JUNCTION     0.00     0.00    29.32     0  00:00        0.00
  YE8-2                JUNCTION     0.00     0.00    29.33     0  00:00        0.00
  YE9                  JUNCTION     0.00     0.00    28.87     0  00:00        0.00
  YF7-2                JUNCTION     0.00     0.00    28.89     0  00:00        0.00
  YE10                 JUNCTION     0.00     0.00    28.84     0  00:47        0.00
  YE11                 JUNCTION     0.00     0.05    28.84     0  00:46        0.04
  YD12                 JUNCTION     0.13     0.44    28.84     0  00:44        0.44
  YF1                  JUNCTION     0.00     0.00    29.46     0  00:00        0.00
  YF2                  JUNCTION     0.00     0.00    29.39     0  00:00        0.00
  YF3                  JUNCTION     0.00     0.00    29.32     0  00:00        0.00
  YF4                  JUNCTION     0.00     0.00    28.85     0  00:00        0.00
  YF4-1                JUNCTION     0.00     0.00    28.97     0  00:00        0.00
  YF4-2                JUNCTION     0.00     0.00    28.97     0  00:00        0.00
  YF5                  JUNCTION     0.00     0.00    28.80     0  00:00        0.00
  YF6                  JUNCTION     0.00     0.00    28.76     0  00:00        0.00
  YF7                  JUNCTION     0.00     0.00    28.37     0  00:00        0.00
  YF7-1                JUNCTION     0.00     0.00    28.89     0  00:00        0.00
  YF8                  JUNCTION     0.00     0.01    28.34     0  00:48        0.01
  YM10                 JUNCTION     0.13     0.44    28.34     0  00:46        0.44
  YG1                  JUNCTION     0.00     0.00    28.46     0  00:00        0.00
  YG2                  JUNCTION     0.00     0.00    28.39     0  00:00        0.00
  YG3                  JUNCTION     0.00     0.00    27.99     0  00:00        0.00
  YG3-1                JUNCTION     0.00     0.00    28.21     0  00:00        0.00
  YG4                  JUNCTION     0.00     0.06    27.91     0  00:52        0.04
  YG4-1                JUNCTION     0.00     0.00    28.17     0  00:00        0.00
  YG5                  JUNCTION     0.00     0.11    27.90     0  00:51        0.11
  YG6                  JUNCTION     0.01     0.16    27.90     0  00:50        0.16
  YG7                  JUNCTION     0.01     0.20    27.90     0  00:50        0.20
  YG8                  JUNCTION     0.02     0.25    27.90     0  00:47        0.25
  YG8-1                JUNCTION     0.00     0.00    28.27     0  00:00        0.00
  YG8-2                JUNCTION     0.00     0.00    28.27     0  00:00        0.00
  YG9                  JUNCTION     0.03     0.29    27.90     0  00:48        0.28
  YG10                 JUNCTION     0.05     0.33    27.90     0  00:48        0.33
  YG11                 JUNCTION     0.08     0.36    27.90     0  00:48        0.36
  A21-2                JUNCTION     0.13     0.41    27.65     0  00:54        0.41
  A21-1                JUNCTION     0.11     0.40    27.68     0  00:53        0.39
  YM21                 JUNCTION     0.14     0.44    27.77     0  00:51        0.44
  YM20                 JUNCTION     0.14     0.46    27.82     0  00:50        0.46
  YM20-1               JUNCTION     0.00     0.03    27.83     0  00:50        0.03
  YM20-2               JUNCTION     0.00     0.00    28.21     0  00:00        0.00
  YM19                 JUNCTION     0.15     0.47    27.87     0  00:49        0.47
  YM18                 JUNCTION     0.15     0.48    27.92     0  00:49        0.48
  YM17                 JUNCTION     0.15     0.49    27.96     0  00:48        0.49
  YM16-1               JUNCTION     0.00     0.00    28.12     0  00:00        0.00
  YM15                 JUNCTION     0.14     0.40    28.13     0  00:48        0.39
  YM14                 JUNCTION     0.13     0.42    28.19     0  00:47        0.42
  YM13                 JUNCTION     0.13     0.43    28.22     0  00:47        0.42
  YM13-1               JUNCTION     0.11     0.41    28.22     0  00:47        0.40
  YM13-2               JUNCTION     0.00     0.00    28.22     0  00:00        0.00
  YM12                 JUNCTION     0.13     0.44    28.27     0  00:47        0.43
  YM11                 JUNCTION     0.13     0.44    28.31     0  00:46        0.44
  YM9                  JUNCTION     0.11     0.42    28.34     0  00:46        0.42
  YM8                  JUNCTION     0.08     0.39    28.34     0  00:46        0.38
  YM7                  JUNCTION     0.06     0.35    28.35     0  00:46        0.34
  YM6                  JUNCTION     0.06     0.31    28.35     0  00:47        0.31
  YM6-1                JUNCTION     0.00     0.00    28.66     0  00:00        0.00
  YM6-2                JUNCTION     0.00     0.00    28.97     0  00:00        0.00
  YM5                  JUNCTION     0.06     0.28    28.36     0  00:47        0.28
  YM4                  JUNCTION     0.05     0.25    28.38     0  00:46        0.25
  YM3                  JUNCTION     0.05     0.24    28.41     0  00:44        0.24
  YM3-1                JUNCTION     0.00     0.01    28.41     0  00:45        0.01
  YM2                  JUNCTION     0.05     0.22    28.43     0  00:43        0.22
  YM1                  JUNCTION     0.05     0.22    28.47     0  00:41        0.22
  YM1-1                JUNCTION     0.00     0.00    28.47     0  00:00        0.00
  A11                  JUNCTION     0.18     0.62    27.69     0  00:53        0.62
  YD1                  JUNCTION     0.06     0.23    29.54     0  00:45        0.23
  YD2                  JUNCTION     0.07     0.23    29.50     0  00:46        0.22
  YD3                  JUNCTION     0.05     0.21    29.24     0  00:46        0.21
  YD3-1                JUNCTION     0.00     0.00    29.64     0  00:00        0.00
  YD3-2                JUNCTION     0.00     0.00    29.66     0  00:00        0.00
  YD4                  JUNCTION     0.05     0.21    29.20     0  00:47        0.21
  YD5                  JUNCTION     0.05     0.21    29.15     0  00:48        0.21
  YD6                  JUNCTION     0.05     0.21    29.11     0  00:49        0.21
  YD7                  JUNCTION     0.07     0.20    29.07     0  00:50        0.20
  YD8                  JUNCTION     0.05     0.21    28.94     0  00:51        0.20
  YD8-1                JUNCTION     0.00     0.00    29.25     0  00:00        0.00
  YD8-2                JUNCTION     0.00     0.00    29.26     0  00:00        0.00
  YD9                  JUNCTION     0.05     0.21    28.90     0  00:51        0.21
  YD10                 JUNCTION     0.06     0.21    28.87     0  00:49        0.21
  YD11                 JUNCTION     0.07     0.22    28.85     0  00:46        0.22
  YD13                 JUNCTION     0.13     0.44    28.82     0  00:45        0.44
  YD14                 JUNCTION     0.13     0.42    28.77     0  00:45        0.42
  YD15                 JUNCTION     0.14     0.40    28.71     0  00:45        0.39
  YD16                 JUNCTION     0.13     0.44    28.51     0  00:46        0.43
  YD16-1               JUNCTION     0.00     0.00    28.89     0  00:00        0.00
  YD16-2               JUNCTION     0.00     0.00    29.11     0  00:00        0.00
  YD17                 JUNCTION     0.13     0.43    28.47     0  00:47        0.42
  YD18                 JUNCTION     0.13     0.42    28.42     0  00:48        0.42
  YD19                 JUNCTION     0.14     0.40    28.36     0  00:48        0.40
  YD19-1               JUNCTION     0.00     0.00    28.77     0  00:00        0.00
  YD20                 JUNCTION     0.11     0.35    27.84     0  00:48        0.35
  YD21                 JUNCTION     0.11     0.32    27.80     0  00:48        0.32
  YC12                 JUNCTION     0.01     0.14    27.90     0  00:46        0.13
  YC11                 JUNCTION     0.00     0.09    27.90     0  00:46        0.09
  YC10                 JUNCTION     0.00     0.05    27.90     0  00:48        0.05
  YC9                  JUNCTION     0.00     0.01    27.89     0  00:50        0.01
  YC9-2                JUNCTION     0.00     0.00    27.92     0  00:00        0.00
  YC9-1                JUNCTION     0.00     0.00    27.90     0  00:00        0.00
  YC8                  JUNCTION     0.00     0.00    28.11     0  00:00        0.00
  YC7                  JUNCTION     0.00     0.00    28.15     0  00:00        0.00
  YC6                  JUNCTION     0.00     0.00    28.60     0  00:00        0.00
  YC5                  JUNCTION     0.00     0.00    28.65     0  00:00        0.00
  YC4                  JUNCTION     0.00     0.00    28.69     0  00:00        0.00
  YC4-2                JUNCTION     0.00     0.00    29.03     0  00:00        0.00
  YC4-1                JUNCTION     0.00     0.00    29.01     0  00:00        0.00
  YC3                  JUNCTION     0.00     0.00    29.27     0  00:00        0.00
  YC2                  JUNCTION     0.00     0.00    29.35     0  00:00        0.00
  YC1                  JUNCTION     0.00     0.00    29.40     0  00:00        0.00
  YB9                  JUNCTION     0.00     0.00    28.85     0  00:00        0.00
  YB8                  JUNCTION     0.00     0.00    28.90     0  00:00        0.00
  YB8-2                JUNCTION     0.00     0.00    29.64     0  00:00        0.00
  YB8-1                JUNCTION     0.00     0.00    29.64     0  00:00        0.00
  YB7                  JUNCTION     0.00     0.00    29.35     0  00:00        0.00
  YB6                  JUNCTION     0.00     0.00    29.39     0  00:00        0.00
  YB5                  JUNCTION     0.00     0.00    29.43     0  00:00        0.00
  YB4                  JUNCTION     0.00     0.00    29.47     0  00:00        0.00
  YB3                  JUNCTION     0.00     0.00    29.51     0  00:00        0.00
  YB3-2                JUNCTION     0.00     0.00    29.84     0  00:00        0.00
  YB3-1                JUNCTION     0.00     0.00    29.83     0  00:00        0.00
  YB2                  JUNCTION     0.00     0.00    30.09     0  00:00        0.00
  YB1                  JUNCTION     0.00     0.00    30.17     0  00:00        0.00
  YA1                  JUNCTION     0.00     0.00    30.00     0  00:00        0.00
  YA1-2                JUNCTION     0.00     0.00    30.13     0  00:00        0.00
  YA1-1                JUNCTION     0.00     0.00    30.02     0  00:00        0.00
  YA2                  JUNCTION     0.00     0.00    29.94     0  00:00        0.00
  YA3                  JUNCTION     0.00     0.09    29.60     0  00:43        0.09
  YA4                  JUNCTION     0.00     0.14    29.60     0  00:44        0.14
  YA5                  JUNCTION     0.01     0.18    29.59     0  00:44        0.18
  Y45                  JUNCTION     0.15     0.37    29.84     0  01:02        0.37
  Y44                  JUNCTION     0.14     0.40    29.91     0  01:02        0.40
  Y43                  JUNCTION     0.14     0.41    29.97     0  01:01        0.41
  Y42                  JUNCTION     0.14     0.41    30.02     0  01:01        0.41
  Y41                  JUNCTION     0.14     0.42    30.08     0  01:00        0.42
  Y40                  JUNCTION     0.14     0.42    30.13     0  01:00        0.42
  Y39                  JUNCTION     0.14     0.42    30.17     0  00:59        0.42
  Y38                  JUNCTION     0.14     0.42    30.22     0  00:59        0.42
  Y37                  JUNCTION     0.14     0.42    30.27     0  00:58        0.42
  Y36                  JUNCTION     0.14     0.37    30.37     0  00:58        0.37
  Y35                  JUNCTION     0.13     0.38    30.44     0  00:58        0.38
  Y34                  JUNCTION     0.13     0.39    30.49     0  00:57        0.39
  Y33                  JUNCTION     0.13     0.39    30.55     0  00:57        0.39
  Y32                  JUNCTION     0.13     0.40    30.60     0  00:56        0.39
  Y31                  JUNCTION     0.13     0.40    30.66     0  00:55        0.40
  Y30                  JUNCTION     0.13     0.40    30.71     0  00:54        0.40
  Y29                  JUNCTION     0.13     0.40    30.77     0  00:54        0.40
  Y28                  JUNCTION     0.11     0.32    30.86     0  00:55        0.32
  Y27                  JUNCTION     0.09     0.32    30.92     0  00:55        0.32
  Y26                  JUNCTION     0.09     0.33    30.98     0  00:54        0.33
  Y25                  JUNCTION     0.09     0.33    31.04     0  00:53        0.33
  Y24                  JUNCTION     0.09     0.33    31.11     0  00:53        0.33
  Y23                  JUNCTION     0.09     0.33    31.17     0  00:52        0.32
  Y22                  JUNCTION     0.09     0.33    31.22     0  00:51        0.33
  Y21                  JUNCTION     0.09     0.33    31.28     0  00:50        0.33
  Y20                  JUNCTION     0.09     0.33    31.34     0  00:49        0.33
  Y19                  JUNCTION     0.09     0.33    31.40     0  00:49        0.33
  Y18                  JUNCTION     0.09     0.34    31.46     0  00:48        0.33
  Y17                  JUNCTION     0.09     0.34    31.52     0  00:47        0.33
  Y16                  JUNCTION     0.11     0.33    31.62     0  00:46        0.32
  Y15                  JUNCTION     0.07     0.28    31.64     0  00:47        0.28
  Y14                  JUNCTION     0.07     0.22    31.74     0  00:49        0.22
  Y13                  JUNCTION     0.06     0.22    31.81     0  00:48        0.22
  Y12                  JUNCTION     0.06     0.22    31.88     0  00:47        0.22
  Y11                  JUNCTION     0.06     0.22    31.95     0  00:46        0.22
  Y10                  JUNCTION     0.06     0.22    32.02     0  00:46        0.22
  Y9                   JUNCTION     0.06     0.22    32.09     0  00:45        0.22
  Y8                   JUNCTION     0.06     0.22    32.17     0  00:44        0.22
  Y7                   JUNCTION     0.06     0.22    32.24     0  00:43        0.22
  Y6                   JUNCTION     0.06     0.22    32.31     0  00:42        0.22
  Y5                   JUNCTION     0.01     0.15    32.31     0  00:41        0.14
  Y4                   JUNCTION     0.00     0.08    32.32     0  00:42        0.07
  Y3                   JUNCTION     0.00     0.00    32.32     0  00:43        0.00
  Y2                   JUNCTION     0.00     0.00    32.38     0  00:00        0.00
  Y1                   JUNCTION     0.00     0.00    32.66     0  00:00        0.00
  B1                   JUNCTION     0.00     0.00    28.78     0  00:00        0.00
  B2                   JUNCTION     0.00     0.00    28.72     0  00:00        0.00
  B3                   JUNCTION     0.00     0.00    28.05     0  00:00        0.00
  B4                   JUNCTION     0.00     0.00    28.01     0  00:00        0.00
  B5                   JUNCTION     0.00     0.00    27.97     0  00:00        0.00
  B6                   JUNCTION     0.00     0.00    27.93     0  00:00        0.00
  B7                   JUNCTION     0.00     0.00    27.89     0  00:50        0.00
  B8                   JUNCTION     0.00     0.04    27.90     0  00:49        0.04
  B9                   JUNCTION     0.00     0.08    27.90     0  00:47        0.07
  B10                  JUNCTION     0.01     0.12    27.90     0  00:46        0.12
  B11                  JUNCTION     0.18     0.57    27.90     0  00:45        0.57
  B12                  JUNCTION     0.18     0.57    27.87     0  00:45        0.57
  B13                  JUNCTION     0.18     0.56    27.84     0  00:46        0.56
  B14                  JUNCTION     0.18     0.55    27.81     0  00:46        0.55
  B15                  JUNCTION     0.18     0.55    27.78     0  00:47        0.54
  B16                  JUNCTION     0.18     0.53    27.75     0  00:48        0.53
  B17                  JUNCTION     0.18     0.52    27.71     0  00:48        0.52
  B18                  JUNCTION     0.18     0.50    27.67     0  00:49        0.50
  B19                  JUNCTION     0.17     0.47    27.62     0  00:52        0.47
  B20                  JUNCTION     0.16     0.64    27.56     0  00:51        0.63
  B21                  JUNCTION     0.16     0.64    27.53     0  00:53        0.63
  B22                  JUNCTION     0.16     0.64    27.51     0  00:54        0.64
  B23                  JUNCTION     0.16     0.64    27.49     0  00:55        0.64
  B24                  JUNCTION     0.16     0.64    27.47     0  00:55        0.64
  B25                  JUNCTION     0.16     0.65    27.45     0  00:56        0.65
  B26                  JUNCTION     0.16     0.65    27.43     0  00:56        0.65
  B27                  JUNCTION     0.17     0.66    27.41     0  00:56        0.66
  B28                  JUNCTION     0.17     0.67    27.39     0  00:57        0.66
  B29                  JUNCTION     0.18     0.67    27.37     0  00:56        0.67
  B30                  JUNCTION     0.19     0.68    27.36     0  00:56        0.67
  B31                  JUNCTION     0.18     0.67    27.32     0  00:57        0.66
  B32                  JUNCTION     0.18     0.64    27.25     0  00:57        0.64
  B33                  JUNCTION     0.18     0.62    27.21     0  00:58        0.62
  B3-1                 JUNCTION     0.00     0.00    28.06     0  00:00        0.00
  B7-1                 JUNCTION     0.00     0.00    27.90     0  00:00        0.00
  B15-1                JUNCTION     0.00     0.00    28.05     0  00:00        0.00
  B23-1                JUNCTION     0.00     0.00    27.86     0  00:00        0.00
  B26-1                JUNCTION     0.00     0.00    27.58     0  00:00        0.00
  A1                   JUNCTION     0.00     0.00    28.90     0  00:00        0.00
  A2                   JUNCTION     0.00     0.00    28.84     0  00:00        0.00
  A3                   JUNCTION     0.00     0.00    28.38     0  00:00        0.00
  A4                   JUNCTION     0.00     0.00    28.34     0  00:00        0.00
  A5                   JUNCTION     0.00     0.00    28.30     0  00:00        0.00
  A6                   JUNCTION     0.00     0.00    28.25     0  00:00        0.00
  A7                   JUNCTION     0.00     0.00    28.21     0  00:00        0.00
  A8                   JUNCTION     0.00     0.00    28.18     0  00:00        0.00
  A9                   JUNCTION     0.00     0.00    28.14     0  00:00        0.00
  A10                  JUNCTION     0.00     0.00    28.11     0  00:00        0.00
  A12                  JUNCTION     0.18     0.63    27.68     0  00:54        0.63
  A13                  JUNCTION     0.19     0.65    27.67     0  00:54        0.65
  A14                  JUNCTION     0.19     0.66    27.67     0  00:55        0.66
  A15                  JUNCTION     0.19     0.67    27.66     0  00:55        0.67
  A16                  JUNCTION     0.20     0.69    27.65     0  00:55        0.69
  A17                  JUNCTION     0.21     0.71    27.65     0  00:55        0.71
  A18                  JUNCTION     0.22     0.72    27.64     0  00:55        0.72
  A19                  JUNCTION     0.23     0.74    27.64     0  00:55        0.74
  A20                  JUNCTION     0.24     0.76    27.63     0  00:55        0.76
  A21                  JUNCTION     0.26     0.78    27.63     0  00:55        0.78
  A22                  JUNCTION     0.26     0.77    27.60     0  00:56        0.77
  A23                  JUNCTION     0.26     0.77    27.57     0  00:56        0.77
  A24                  JUNCTION     0.26     0.77    27.55     0  00:57        0.76
  A25                  JUNCTION     0.26     0.76    27.52     0  00:57        0.76
  A26                  JUNCTION     0.26     0.76    27.50     0  00:57        0.75
  A27                  JUNCTION     0.26     0.75    27.47     0  00:57        0.75
  A28                  JUNCTION     0.26     0.75    27.44     0  00:58        0.74
  A29                  JUNCTION     0.26     0.74    27.41     0  00:58        0.74
  A30                  JUNCTION     0.26     0.73    27.38     0  00:58        0.73
  A31                  JUNCTION     0.27     0.72    27.35     0  00:58        0.72
  A32                  JUNCTION     0.27     0.71    27.32     0  00:57        0.71
  A33                  JUNCTION     0.26     0.68    27.27     0  00:58        0.68
  A34                  JUNCTION     0.24     0.64    27.21     0  00:58        0.64
  A35                  JUNCTION     0.18     0.57    27.13     0  00:58        0.57
  A36                  JUNCTION     0.21     0.71    27.03     0  00:58        0.71
  A37                  JUNCTION     0.21     0.63    26.89     0  00:59        0.63
  A3-1                 JUNCTION     0.00     0.00    28.39     0  00:00        0.00
  A7-1                 JUNCTION     0.00     0.00    28.22     0  00:00        0.00
  A15-1                JUNCTION     0.00     0.00    28.00     0  00:00        0.00
  A24-1                JUNCTION     0.01     0.16    27.55     0  00:57        0.15
  A29-1                JUNCTION     0.01     0.13    27.41     0  00:58        0.13
  B33-1                JUNCTION     0.18     0.59    27.15     0  00:58        0.59
  YN12                 OUTFALL      0.00     0.05    26.04     0  00:52        0.05
  Y46                  OUTFALL      0.08     0.25    29.67     0  01:02        0.25
  A38                  OUTFALL      0.10     0.38    26.58     0  00:59        0.38
  
  
  *******************
  Node Inflow Summary
  *******************
  
  -------------------------------------------------------------------------------------------------
                                  Maximum  Maximum                  Lateral       Total        Flow
                                  Lateral    Total  Time of Max      Inflow      Inflow     Balance
                                   Inflow   Inflow   Occurrence      Volume      Volume       Error
  Node                 Type           CMS      CMS  days hr:min    10^6 ltr    10^6 ltr     Percent
  -------------------------------------------------------------------------------------------------
  YM16                 JUNCTION     0.121    0.365     0  00:46       0.413        1.71       0.041
  YJ3                  JUNCTION     0.000    0.000     0  00:00           0           0       0.000 ltr
  YH27                 JUNCTION     0.363    0.515     0  00:48        1.47        2.61      -0.019
  YH27-3               JUNCTION     0.000    0.000     0  00:00           0           0       0.000 ltr
  YH27-2               JUNCTION     0.000    0.000     0  00:00           0           0       0.000 ltr
  YH27-1               JUNCTION     0.000    0.000     0  00:00           0           0       0.000 ltr
  YL1                  JUNCTION     0.000    0.000     0  00:00           0           0       0.000 ltr
  YL1-1                JUNCTION     0.000    0.000     0  00:00           0           0       0.000 ltr
  YL1-2                JUNCTION     0.000    0.000     0  00:00           0           0       0.000 ltr
  YL2                  JUNCTION     0.000    0.000     0  00:00           0           0       0.000 ltr
  YL3                  JUNCTION     0.000    0.000     0  00:00           0           0       0.000 ltr
  YL4                  JUNCTION     0.000    0.000     0  00:00           0           0       0.000 ltr
  YL6                  JUNCTION     0.000    0.508     0  00:44           0        2.14       0.007
  YL7                  JUNCTION     0.000    0.506     0  00:44           0        2.14       0.008
  YL8                  JUNCTION     0.000    0.504     0  00:45           0        2.14       0.011
  YL9                  JUNCTION     0.000    0.502     0  00:45           0        2.14       0.189
  YL10-1               JUNCTION     0.000    0.000     0  00:00           0           0       0.000 ltr
  YL10                 JUNCTION     0.000    0.498     0  00:46           0        2.14      -0.101
  YL10-2               JUNCTION     0.000    0.000     0  00:00           0           0       0.000 ltr
  YL12                 JUNCTION     0.000    0.481     0  00:46           0        2.14       0.021
  YL11                 JUNCTION     0.000    0.489     0  00:46           0        2.14       0.017
  YL13                 JUNCTION     0.000    0.472     0  00:47           0        2.14       0.029
  B20-1                JUNCTION     0.000    0.461     0  00:48           0        2.15       0.006
  YI2                  JUNCTION     0.000    0.000     0  00:00           0           0       0.000 ltr
  YX13                 JUNCTION     0.000    0.000     0  00:00           0           0       0.000 ltr
  YX12                 JUNCTION     0.000    0.000     0  00:00           0           0       0.000 ltr
  YX11                 JUNCTION     0.000    0.000     0  00:00           0           0       0.000 ltr
  YX10                 JUNCTION     0.000    0.000     0  00:00           0           0       0.000 ltr
  YX9                  JUNCTION     0.000    0.000     0  00:00           0           0       0.000 ltr
  YX8                  JUNCTION     0.000    0.000     0  00:00           0           0       0.000 ltr
  YX7                  JUNCTION     0.000    0.000     0  00:00           0           0       0.000 ltr
  YX6                  JUNCTION     0.000    0.000     0  00:00           0           0       0.000 ltr
  YX5                  JUNCTION     0.000    0.000     0  00:00           0           0       0.000 ltr
  YX4                  JUNCTION     0.000    0.000     0  00:00           0           0       0.000 ltr
  YX3                  JUNCTION     0.000    0.000     0  00:00           0           0       0.000 ltr
  YX2                  JUNCTION     0.000    0.000     0  00:00           0           0       0.000 ltr
  YX1                  JUNCTION     0.000    0.000     0  00:00           0           0       0.000 ltr
  YW10                 JUNCTION     0.058    0.058     0  00:40       0.156       0.157      -0.121
  YW9                  JUNCTION     0.000    0.005     0  00:32           0     0.00152       2.151
  YW8                  JUNCTION     0.000    0.000     0  00:00           0           0       0.000 ltr
  YW7                  JUNCTION     0.000    0.000     0  00:00           0           0       0.000 ltr
  YW6                  JUNCTION     0.000    0.000     0  00:00           0           0       0.000 ltr
  YW5                  JUNCTION     0.000    0.000     0  00:00           0           0       0.000 ltr
  YK1                  JUNCTION     0.000    0.000     0  00:00           0           0       0.000 ltr
  YK2                  JUNCTION     0.000    0.000     0  00:00           0           0       0.000 ltr
  YK3                  JUNCTION     0.000    0.000     0  00:00           0           0       0.000 ltr
  YK4                  JUNCTION     0.000    0.000     0  00:00           0           0       0.000 ltr
  YK5                  JUNCTION     0.000    0.000     0  00:00           0           0       0.000 ltr
  YK6                  JUNCTION     0.000    0.000     0  00:00           0           0       0.000 ltr
  YK7                  JUNCTION     0.000    0.000     0  00:00           0           0       0.000 ltr
  YK8                  JUNCTION     0.000    0.000     0  00:00           0           0       0.000 ltr
  YK3-1                JUNCTION     0.000    0.000     0  00:00           0           0       0.000 ltr
  YK3-2                JUNCTION     0.000    0.000     0  00:00           0           0       0.000 ltr
  YK8-2                JUNCTION     0.000    0.000     0  00:00           0           0       0.000 ltr
  YK8-1                JUNCTION     0.000    0.000     0  00:00           0           0       0.000 ltr
  YK9                  JUNCTION     0.000    0.000     0  00:00           0           0       0.000 ltr
  YK10                 JUNCTION     0.303    0.303     0  00:40         1.1         1.1      -0.032
  YK11                 JUNCTION     0.000    0.300     0  00:40           0         1.1       0.009
  YK12                 JUNCTION     0.000    0.293     0  00:40           0         1.1       0.011
  YK13                 JUNCTION     0.000    0.287     0  00:41           0         1.1       0.010
  YK14                 JUNCTION     0.000    0.281     0  00:42           0         1.1       0.001
  YK14-2               JUNCTION     0.000    0.000     0  00:00           0           0       0.000 ltr
  YK14-1               JUNCTION     0.000    0.000     0  00:00           0           0       0.000 ltr
  YK15                 JUNCTION     0.000    0.279     0  00:43           0         1.1       0.009
  YK17                 JUNCTION     0.000    0.277     0  00:44           0         1.1       0.066
  YL5                  JUNCTION     0.249    0.509     0  00:44        1.04        2.14      -0.011
  YN10-1               JUNCTION     0.000    0.000     0  00:00           0           0       0.000 ltr
  YN10-2               JUNCTION     0.000    0.000     0  00:00           0           0       0.000 ltr
  YN10-3               JUNCTION     0.000    0.000     0  00:00           0           0       0.000 ltr
  YN10-4               JUNCTION     0.000    0.000     0  00:00           0           0       0.000 ltr
  YN10-4-1             JUNCTION     0.000    0.000     0  00:00           0           0       0.000 ltr
  YN10-5               JUNCTION     0.000    0.000     0  00:00           0           0       0.000 ltr
  YN10-6               JUNCTION     0.000    0.000     0  00:00           0           0       0.000 ltr
  YN10-7               JUNCTION     0.018    0.018     0  00:35      0.0257      0.0257      -0.415
  YN10-7-1             JUNCTION     0.000    0.000     0  00:00           0           0       0.000 ltr
  YN10-8               JUNCTION     0.000    0.017     0  00:35           0      0.0258      -0.099
  YN10-9               JUNCTION     0.000    0.017     0  00:37           0      0.0259       0.493
  YN10-10              JUNCTION     0.000    0.014     0  00:40           0      0.0257      -0.287
  YN10-10-1            JUNCTION     0.000    0.000     0  00:00           0           0       0.000 ltr
  YN10-11              JUNCTION     0.000    0.013     0  00:40           0      0.0258      -0.049
  YN10-12              JUNCTION     0.000    0.013     0  00:41           0      0.0258      -0.213
  YN10-13              JUNCTION     0.000    0.013     0  00:44           0      0.0259       0.560
  YN10                 JUNCTION     0.000    0.010     0  00:49           0      0.0257      -0.349
  YW4                  JUNCTION     0.000    0.000     0  00:00           0           0       0.000 ltr
  YW3                  JUNCTION     0.000    0.000     0  00:00           0           0       0.000 ltr
  YW2                  JUNCTION     0.000    0.000     0  00:00           0           0       0.000 ltr
  YW1                  JUNCTION     0.000    0.000     0  00:00           0           0       0.000 ltr
  YV13                 JUNCTION     0.071    0.071     0  00:40       0.193       0.202      -0.087
  YV12                 JUNCTION     0.000    0.018     0  00:35           0       0.015      -0.033
  YV11                 JUNCTION     0.000    0.012     0  00:36           0     0.00836       0.120
  YV10                 JUNCTION     0.000    0.008     0  00:38           0     0.00348       0.844
  YV9                  JUNCTION     0.000    0.004     0  00:40           0    0.000732       6.659
  YV8                  JUNCTION     0.000    0.000     0  00:00           0           0       0.000 ltr
  YV7                  JUNCTION     0.000    0.000     0  00:00           0           0       0.000 ltr
  YV6                  JUNCTION     0.000    0.000     0  00:00           0           0       0.000 ltr
  YV5                  JUNCTION     0.000    0.000     0  00:00           0           0       0.000 ltr
  YV4                  JUNCTION     0.000    0.000     0  00:00           0           0       0.000 ltr
  YV4-1                JUNCTION     0.000    0.000     0  00:00           0           0       0.000 ltr
  YV3                  JUNCTION     0.000    0.000     0  00:00           0           0       0.000 ltr
  YV3-1                JUNCTION     0.000    0.000     0  00:00           0           0       0.000 ltr
  YV2                  JUNCTION     0.000    0.000     0  00:00           0           0       0.000 ltr
  YV1                  JUNCTION     0.000    0.000     0  00:00           0           0       0.000 ltr
  YV9-1                JUNCTION     0.000    0.000     0  00:00           0           0       0.000 ltr
  YH8                  JUNCTION     0.000    0.025     0  00:36           0     0.00439       3.717
  YH7                  JUNCTION     0.000    0.000     0  00:00           0           0       0.000 ltr
  YH6                  JUNCTION     0.000    0.000     0  00:00           0           0       0.000 ltr
  YH5                  JUNCTION     0.000    0.000     0  00:00           0           0       0.000 ltr
  YH4                  JUNCTION     0.000    0.000     0  00:00           0           0       0.000 ltr
  YH3                  JUNCTION     0.000    0.000     0  00:00           0           0       0.000 ltr
  YH2                  JUNCTION     0.000    0.000     0  00:00           0           0       0.000 ltr
  YH1                  JUNCTION     0.000    0.000     0  00:00           0           0       0.000 ltr
  YH9                  JUNCTION     0.000    0.047     0  00:36           0      0.0184       0.631
  YH10                 JUNCTION     0.000    0.072     0  00:35           0      0.0494      -0.350
  YH10-1               JUNCTION     0.000    0.009     0  00:32           0     0.00282       1.656
  YH11                 JUNCTION     0.324    0.324     0  00:40        1.09        1.13      -0.037
  YH12                 JUNCTION     0.000    0.285     0  00:42           0        1.09       0.004
  YH13                 JUNCTION     0.000    0.283     0  00:43           0        1.09       0.011
  YH14                 JUNCTION     0.000    0.282     0  00:43           0        1.09       0.006
  YH15                 JUNCTION     0.000    0.281     0  00:43           0        1.09       0.048
  YH16                 JUNCTION     0.000    0.280     0  00:44           0        1.09      -0.020
  YH17                 JUNCTION     0.000    0.279     0  00:45           0        1.09       0.008
  YH18                 JUNCTION     0.000    0.276     0  00:46           0        1.09       0.007
  YH19                 JUNCTION     0.000    0.274     0  00:46           0        1.09       0.006
  YH20                 JUNCTION     0.000    0.273     0  00:47           0        1.09       0.001
  YH21                 JUNCTION     0.000    0.272     0  00:48           0        1.09       0.151
  YH22                 JUNCTION     0.000    0.270     0  00:48           0        1.09      -0.012
  YH22-1               JUNCTION     0.000    0.000     0  00:00           0           0       0.000 ltr
  YH23                 JUNCTION     0.000    0.269     0  00:49           0        1.11       0.023
  YH24                 JUNCTION     0.000    0.269     0  00:50           0        1.13       0.030
  YH25                 JUNCTION     0.000    0.272     0  00:51           0        1.15      -0.013
  YH26                 JUNCTION     0.000    0.274     0  00:51           0        1.18       0.007
  YH28                 JUNCTION     0.000    0.514     0  00:48           0        2.56       0.008
  YH29                 JUNCTION     0.000    0.513     0  00:49           0        2.56       0.010
  YH30                 JUNCTION     0.000    0.511     0  00:49           0        2.56       0.105
  YH31                 JUNCTION     0.000    0.509     0  00:49           0        2.56      -0.060
  YH31-1               JUNCTION     0.000    0.006     0  00:43           0     0.00251       1.171
  YH32                 JUNCTION     0.000    0.503     0  00:50           0        2.56       0.011
  YH33                 JUNCTION     0.000    0.498     0  00:51           0        2.56       0.012
  YH34                 JUNCTION     0.000    0.493     0  00:52           0        2.56       0.009
  YH35                 JUNCTION     0.000    0.494     0  00:53           0        2.57       0.015
  YH35-1               JUNCTION     0.000    0.015     0  00:38           0     0.00534       1.004
  YH36                 JUNCTION     0.000    0.486     0  00:54           0        2.56       0.014
  YH37                 JUNCTION     0.000    0.483     0  00:54           0        2.56       0.018
  YH38                 JUNCTION     0.000    0.481     0  00:55           0        2.56       0.010
  B30-1                JUNCTION     0.000    0.480     0  00:55           0        2.56       0.022
  A35-1                JUNCTION     0.000    0.434     0  00:50           0        2.46       0.199
  YI24                 JUNCTION     0.000    0.434     0  00:50           0        2.46       0.019
  YI23                 JUNCTION     0.000    0.435     0  00:50           0        2.46       0.007
  YI23-1               JUNCTION     0.000    0.000     0  00:00           0           0       0.000 ltr
  YI22                 JUNCTION     0.000    0.436     0  00:49           0        2.46       0.012
  YI21                 JUNCTION     0.000    0.438     0  00:48           0        2.46       0.014
  YI20                 JUNCTION     0.000    0.441     0  00:48           0        2.46       0.016
  YI19                 JUNCTION     0.000    0.445     0  00:47           0        2.46       0.015
  YI18                 JUNCTION     0.000    0.450     0  00:46           0        2.46      -0.080
  YI18-1               JUNCTION     0.000    0.000     0  00:00           0           0       0.000 ltr
  YI17                 JUNCTION     0.000    0.452     0  00:45           0        2.46       0.162
  YI16                 JUNCTION     0.000    0.454     0  00:45           0        2.46       0.006
  YI15                 JUNCTION     0.255    0.456     0  00:45        1.21        2.47       0.092
  YJ14                 JUNCTION     0.000    0.001     0  00:45           0     0.00042      -2.128
  YI14                 JUNCTION     0.000    0.229     0  00:50           0        1.25       0.009
  YI14-1               JUNCTION     0.000    0.000     0  00:00           0           0       0.000 ltr
  YI13                 JUNCTION     0.000    0.227     0  00:49           0        1.25       0.025
  YI12                 JUNCTION     0.000    0.226     0  00:49           0        1.25       0.016
  YI11                 JUNCTION     0.000    0.226     0  00:45           0        1.25       0.011
  YI10                 JUNCTION     0.000    0.227     0  00:45           0        1.25       0.004
  YI9                  JUNCTION     0.296    0.296     0  00:40        1.25        1.32      -0.028
  YG12                 JUNCTION     0.000    0.065     0  00:40           0      0.0992      -0.008
  YI8                  JUNCTION     0.000    0.017     0  00:40           0      0.0153      -0.183
  YI7                  JUNCTION     0.000    0.012     0  00:40           0     0.00897      -0.278
  YI6                  JUNCTION     0.000    0.009     0  00:43           0     0.00349       3.121
  YI5                  JUNCTION     0.000    0.003     0  00:43           0    0.000597       3.650
  YI5-1                JUNCTION     0.000    0.000     0  00:00           0           0       0.000 ltr
  YI4                  JUNCTION     0.000    0.000     0  00:00           0           0       0.000 ltr
  YI4-1                JUNCTION     0.000    0.000     0  00:00           0           0       0.000 ltr
  YI3                  JUNCTION     0.000    0.000     0  00:00           0           0       0.000 ltr
  YN1                  JUNCTION     0.000    0.000     0  00:00           0           0       0.000 ltr
  YN2                  JUNCTION     0.000    0.000     0  00:00           0           0       0.000 ltr
  YN3                  JUNCTION     0.000    0.000     0  00:00           0           0       0.000 ltr
  YN4                  JUNCTION     0.000    0.000     0  00:00           0           0       0.000 ltr
  YN4-1                JUNCTION     0.000    0.000     0  00:00           0           0       0.000 ltr
  YN5                  JUNCTION     0.000    0.000     0  00:00           0           0       0.000 ltr
  YN6                  JUNCTION     0.000    0.000     0  00:00           0           0       0.000 ltr
  YN7                  JUNCTION     0.000    0.000     0  00:00           0           0       0.000 ltr
  YN8                  JUNCTION     0.000    0.000     0  00:00           0           0       0.000 ltr
  YN9                  JUNCTION     0.000    0.000     0  00:00           0           0       0.000 ltr
  YN11                 JUNCTION     0.000    0.010     0  00:48           0      0.0258       0.351
  YJ13                 JUNCTION     0.000    0.000     0  00:47           0    7.47e-05      13.974
  YJ12                 JUNCTION     0.000    0.000     0  00:00           0           0       0.000 ltr
  YJ12-1               JUNCTION     0.000    0.000     0  00:00           0           0       0.000 ltr
  YJ11                 JUNCTION     0.000    0.000     0  00:00           0           0       0.000 ltr
  YJ10                 JUNCTION     0.000    0.000     0  00:00           0           0       0.000 ltr
  YJ9                  JUNCTION     0.000    0.000     0  00:00           0           0       0.000 ltr
  YJ8                  JUNCTION     0.000    0.000     0  00:00           0           0       0.000 ltr
  YJ8-1                JUNCTION     0.000    0.000     0  00:00           0           0       0.000 ltr
  YJ7                  JUNCTION     0.000    0.000     0  00:00           0           0       0.000 ltr
  YJ6                  JUNCTION     0.000    0.000     0  00:00           0           0       0.000 ltr
  YJ1                  JUNCTION     0.000    0.000     0  00:00           0           0       0.000 ltr
  YJ2                  JUNCTION     0.000    0.000     0  00:00           0           0       0.000 ltr
  YJ3-1                JUNCTION     0.000    0.000     0  00:00           0           0       0.000 ltr
  YJ4                  JUNCTION     0.000    0.000     0  00:00           0           0       0.000 ltr
  YJ5                  JUNCTION     0.000    0.000     0  00:00           0           0       0.000 ltr
  YE1                  JUNCTION     0.000    0.000     0  00:00           0           0       0.000 ltr
  YE2                  JUNCTION     0.000    0.000     0  00:00           0           0       0.000 ltr
  YE3                  JUNCTION     0.000    0.000     0  00:00           0           0       0.000 ltr
  YE3-1                JUNCTION     0.000    0.000     0  00:00           0           0       0.000 ltr
  YE3-2                JUNCTION     0.000    0.000     0  00:00           0           0       0.000 ltr
  YE4                  JUNCTION     0.000    0.000     0  00:00           0           0       0.000 ltr
  YE5                  JUNCTION     0.000    0.000     0  00:00           0           0       0.000 ltr
  YE6                  JUNCTION     0.000    0.000     0  00:00           0           0       0.000 ltr
  YE7                  JUNCTION     0.000    0.000     0  00:00           0           0       0.000 ltr
  YE8                  JUNCTION     0.000    0.000     0  00:00           0           0       0.000 ltr
  YE8-1                JUNCTION     0.000    0.000     0  00:00           0           0       0.000 ltr
  YE8-2                JUNCTION     0.000    0.000     0  00:00           0           0       0.000 ltr
  YE9                  JUNCTION     0.000    0.000     0  00:00           0           0       0.000 ltr
  YF7-2                JUNCTION     0.000    0.000     0  00:00           0           0       0.000 ltr
  YE10                 JUNCTION     0.000    0.000     0  00:46           0    1.76e-05       5.913 ltr
  YE11                 JUNCTION     0.000    0.001     0  00:44           0    0.000364      -0.671
  YD12                 JUNCTION     0.311    0.311     0  00:40        1.14        1.34       0.033
  YF1                  JUNCTION     0.000    0.000     0  00:00           0           0       0.000 ltr
  YF2                  JUNCTION     0.000    0.000     0  00:00           0           0       0.000 ltr
  YF3                  JUNCTION     0.000    0.000     0  00:00           0           0       0.000 ltr
  YF4                  JUNCTION     0.000    0.000     0  00:00           0           0       0.000 ltr
  YF4-1                JUNCTION     0.000    0.000     0  00:00           0           0       0.000 ltr
  YF4-2                JUNCTION     0.000    0.000     0  00:00           0           0       0.000 ltr
  YF5                  JUNCTION     0.000    0.000     0  00:00           0           0       0.000 ltr
  YF6                  JUNCTION     0.000    0.000     0  00:00           0           0       0.000 ltr
  YF7                  JUNCTION     0.000    0.000     0  00:00           0           0       0.000 ltr
  YF7-1                JUNCTION     0.000    0.000     0  00:00           0           0       0.000 ltr
  YF8                  JUNCTION     0.000    0.000     0  00:45           0    4.36e-05      40.840
  YM10                 JUNCTION     0.278    0.288     0  00:45        1.14        1.33      -0.025
  YG1                  JUNCTION     0.000    0.000     0  00:00           0           0       0.000 ltr
  YG2                  JUNCTION     0.000    0.000     0  00:00           0           0       0.000 ltr
  YG3                  JUNCTION     0.000    0.000     0  00:00           0           0       0.000 ltr
  YG3-1                JUNCTION     0.000    0.000     0  00:00           0           0       0.000 ltr
  YG4                  JUNCTION     0.000    0.003     0  00:49           0    0.000616      10.822
  YG4-1                JUNCTION     0.000    0.000     0  00:00           0           0       0.000 ltr
  YG5                  JUNCTION     0.000    0.009     0  00:47           0     0.00336       1.379
  YG6                  JUNCTION     0.000    0.015     0  00:44           0     0.00875       0.401
  YG7                  JUNCTION     0.000    0.021     0  00:41           0      0.0163      -0.023
  YG8                  JUNCTION     0.000    0.030     0  00:41           0      0.0268       0.213
  YG8-1                JUNCTION     0.000    0.000     0  00:00           0           0       0.000 ltr
  YG8-2                JUNCTION     0.000    0.000     0  00:00           0           0       0.000 ltr
  YG9                  JUNCTION     0.000    0.041     0  00:40           0      0.0416       0.118
  YG10                 JUNCTION     0.000    0.051     0  00:40           0      0.0608      -0.056
  YG11                 JUNCTION     0.000    0.059     0  00:40           0      0.0811      -0.064
  A21-2                JUNCTION     0.000    0.348     0  00:50           0        1.71       0.075
  A21-1                JUNCTION     0.000    0.351     0  00:50           0        1.71       0.017
  YM21                 JUNCTION     0.000    0.352     0  00:49           0        1.71       0.013
  YM20                 JUNCTION     0.000    0.354     0  00:49           0        1.71       0.011
  YM20-1               JUNCTION     0.000    0.000     0  00:48           0    6.34e-05       8.693
  YM20-2               JUNCTION     0.000    0.000     0  00:00           0           0       0.000 ltr
  YM19                 JUNCTION     0.000    0.357     0  00:48           0        1.71       0.010
  YM18                 JUNCTION     0.000    0.360     0  00:47           0        1.71       0.012
  YM17                 JUNCTION     0.000    0.363     0  00:47           0        1.71       0.006
  YM16-1               JUNCTION     0.000    0.000     0  00:00           0           0       0.000 ltr
  YM15                 JUNCTION     0.000    0.277     0  00:47           0         1.3      -0.038
  YM14                 JUNCTION     0.000    0.278     0  00:47           0         1.3      -0.007
  YM13                 JUNCTION     0.000    0.280     0  00:46           0         1.3       0.019
  YM13-1               JUNCTION     0.000    0.005     0  00:35           0     0.00315       0.567
  YM13-2               JUNCTION     0.000    0.000     0  00:00           0           0       0.000 ltr
  YM12                 JUNCTION     0.000    0.283     0  00:45           0         1.3       0.007
  YM11                 JUNCTION     0.000    0.285     0  00:45           0         1.3       0.002
  YM9                  JUNCTION     0.000    0.062     0  00:39           0       0.215      -0.048
  YM8                  JUNCTION     0.000    0.054     0  00:38           0       0.194      -0.018
  YM7                  JUNCTION     0.000    0.049     0  00:49           0       0.175       0.028
  YM6                  JUNCTION     0.000    0.047     0  00:48           0       0.161       0.143
  YM6-1                JUNCTION     0.000    0.000     0  00:00           0           0       0.000 ltr
  YM6-2                JUNCTION     0.000    0.000     0  00:00           0           0       0.000 ltr
  YM5                  JUNCTION     0.000    0.049     0  00:44           0       0.156       0.158
  YM4                  JUNCTION     0.000    0.052     0  00:42           0       0.156      -0.005
  YM3                  JUNCTION     0.000    0.054     0  00:41           0       0.156      -0.056
  YM3-1                JUNCTION     0.000    0.000     0  00:44           0    1.75e-05       1.357 ltr
  YM2                  JUNCTION     0.000    0.055     0  00:41           0       0.156       0.004
  YM1                  JUNCTION     0.000    0.057     0  00:40           0       0.156       0.046
  YM1-1                JUNCTION     0.000    0.000     0  00:00           0           0       0.000 ltr
  A11                  JUNCTION     0.224    0.472     0  00:44       0.833        2.16      -0.020
  YD1                  JUNCTION     0.000    0.057     0  00:45           0       0.193      -0.052
  YD2                  JUNCTION     0.000    0.057     0  00:45           0       0.193       0.110
  YD3                  JUNCTION     0.000    0.056     0  00:46           0       0.193      -0.065
  YD3-1                JUNCTION     0.000    0.000     0  00:00           0           0       0.000 ltr
  YD3-2                JUNCTION     0.000    0.000     0  00:00           0           0       0.000 ltr
  YD4                  JUNCTION     0.000    0.056     0  00:46           0       0.193      -0.008
  YD5                  JUNCTION     0.000    0.055     0  00:47           0       0.193      -0.005
  YD6                  JUNCTION     0.000    0.054     0  00:48           0       0.193      -0.018
  YD7                  JUNCTION     0.000    0.054     0  00:49           0       0.193       0.122
  YD8                  JUNCTION     0.000    0.054     0  00:50           0       0.193       0.076
  YD8-1                JUNCTION     0.000    0.000     0  00:00           0           0       0.000 ltr
  YD8-2                JUNCTION     0.000    0.000     0  00:00           0           0       0.000 ltr
  YD9                  JUNCTION     0.000    0.054     0  00:51           0       0.197       0.038
  YD10                 JUNCTION     0.000    0.054     0  00:51           0       0.203       0.007
  YD11                 JUNCTION     0.000    0.055     0  00:52           0        0.21      -0.275
  YD13                 JUNCTION     0.000    0.299     0  00:44           0        1.33       0.003
  YD14                 JUNCTION     0.000    0.298     0  00:44           0        1.33       0.005
  YD15                 JUNCTION     0.000    0.297     0  00:45           0        1.33       0.038
  YD16                 JUNCTION     0.000    0.296     0  00:46           0        1.33      -0.018
  YD16-1               JUNCTION     0.000    0.000     0  00:00           0           0       0.000 ltr
  YD16-2               JUNCTION     0.000    0.000     0  00:00           0           0       0.000 ltr
  YD17                 JUNCTION     0.000    0.295     0  00:46           0        1.33       0.009
  YD18                 JUNCTION     0.000    0.293     0  00:46           0        1.33      -0.008
  YD19                 JUNCTION     0.000    0.292     0  00:47           0        1.33       0.076
  YD19-1               JUNCTION     0.000    0.000     0  00:00           0           0       0.000 ltr
  YD20                 JUNCTION     0.000    0.291     0  00:48           0        1.33      -0.001
  YD21                 JUNCTION     0.000    0.291     0  00:48           0        1.33       0.009
  YC12                 JUNCTION     0.000    0.013     0  00:40           0     0.00716      -0.059
  YC11                 JUNCTION     0.000    0.007     0  00:43           0     0.00301       1.677
  YC10                 JUNCTION     0.000    0.003     0  00:46           0    0.000778       6.536
  YC9                  JUNCTION     0.000    0.000     0  00:48           0    5.26e-05      38.432
  YC9-2                JUNCTION     0.000    0.000     0  00:00           0           0       0.000 ltr
[...]
  A21-2.1                 1.00   0.00  0.00  0.00  0.11  0.00  0.00  0.88  0.00  0.00
  A21-1.1                 1.00   0.00  0.00  0.00  1.00  0.00  0.00  0.00  0.70  0.00
  YM21.1                  1.00   0.00  0.00  0.00  1.00  0.00  0.00  0.00  0.00  0.00
  YM20.1                  1.00   0.00  0.00  0.00  1.00  0.00  0.00  0.00  0.29  0.00
  YM20-1.1                1.00   0.03  0.00  0.00  0.03  0.00  0.00  0.94  0.00  0.00
  YM20-2.1                1.00   1.00  0.00  0.00  0.00  0.00  0.00  0.00  0.00  0.00
  YM19.1                  1.00   0.00  0.00  0.00  1.00  0.00  0.00  0.00  0.31  0.00
  YM18.1                  1.00   0.00  0.00  0.00  1.00  0.00  0.00  0.00  0.30  0.00
  YM17.1                  1.00   0.00  0.00  0.00  1.00  0.00  0.00  0.00  0.30  0.00
  YM16.1                  1.00   0.00  0.00  0.00  1.00  0.00  0.00  0.00  0.25  0.00
  YM16-1.1                1.00   1.00  0.00  0.00  0.00  0.00  0.00  0.00  0.00  0.00
  YM15.1                  1.00   0.00  0.00  0.00  0.04  0.00  0.00  0.96  0.00  0.00
  YM14.1                  1.00   0.00  0.00  0.00  1.00  0.00  0.00  0.00  0.28  0.00
  YM13.1                  1.00   0.00  0.00  0.00  1.00  0.00  0.00  0.00  0.21  0.00
  YM13-1.1                1.00   0.00  0.00  0.00  0.99  0.00  0.00  0.00  0.00  0.00
  YM13-2.1                1.00   0.98  0.02  0.00  0.00  0.00  0.00  0.00  0.00  0.00
  YM12.1                  1.00   0.00  0.00  0.00  1.00  0.00  0.00  0.00  0.47  0.00
  YM11.1                  1.00   0.00  0.00  0.00  1.00  0.00  0.00  0.00  0.39  0.00
  YM10.1                  1.00   0.00  0.00  0.00  1.00  0.00  0.00  0.00  0.26  0.00
  YM9.1                   1.00   0.00  0.00  0.00  1.00  0.00  0.00  0.00  0.14  0.00
  YM8.1                   1.00   0.00  0.01  0.00  0.99  0.00  0.00  0.00  0.38  0.00
  YM7.1                   1.00   0.01  0.00  0.00  0.99  0.00  0.00  0.00  0.80  0.00
  YM6.1                   1.00   0.01  0.00  0.00  0.99  0.00  0.00  0.00  0.66  0.00
  YM6-1.1                 1.00   1.00  0.00  0.00  0.00  0.00  0.00  0.00  0.00  0.00
  YM6-2.1                 1.00   1.00  0.00  0.00  0.00  0.00  0.00  0.00  0.00  0.00
  YM5.1                   1.00   0.01  0.00  0.00  0.99  0.00  0.00  0.00  0.02  0.00
  YM4.1                   1.00   0.00  0.00  0.00  1.00  0.00  0.00  0.00  0.87  0.00
  YM3.1                   1.00   0.00  0.00  0.00  1.00  0.00  0.00  0.00  0.61  0.00
  YM3-1.1                 1.00   0.02  0.01  0.00  0.02  0.00  0.00  0.95  0.01  0.00
  YM2.1                   1.00   0.00  0.00  0.00  1.00  0.00  0.00  0.00  0.92  0.00
  YM1.1                   1.00   0.00  0.00  0.00  1.00  0.00  0.00  0.00  0.00  0.00
  YM1-1.1                 1.00   0.98  0.02  0.00  0.00  0.00  0.00  0.00  0.00  0.00
  YW10.1                  1.00   0.00  0.00  0.00  1.00  0.00  0.00  0.00  0.28  0.00
  YD16-1.1                1.00   1.00  0.00  0.00  0.00  0.00  0.00  0.00  0.00  0.00
  YD16-2.1                1.00   1.00  0.00  0.00  0.00  0.00  0.00  0.00  0.00  0.00
  YD1.1                   1.00   0.00  0.00  0.00  1.00  0.00  0.00  0.00  0.88  0.00
  YD2.1                   1.00   0.00  0.00  0.00  0.00  0.00  0.00  1.00  0.00  0.00
  YD3.1                   1.00   0.00  0.00  0.00  1.00  0.00  0.00  0.00  0.67  0.00
  YD4.1                   1.00   0.00  0.00  0.00  1.00  0.00  0.00  0.00  0.67  0.00
  YD5.1                   1.00   0.00  0.00  0.00  1.00  0.00  0.00  0.00  0.68  0.00
  YD3-1.1                 1.00   1.00  0.00  0.00  0.00  0.00  0.00  0.00  0.00  0.00
  YD3-2.1                 1.00   1.00  0.00  0.00  0.00  0.00  0.00  0.00  0.00  0.00
  YD6.1                   1.00   0.01  0.00  0.00  0.99  0.00  0.00  0.00  0.70  0.00
  YD7.1                   1.00   0.01  0.00  0.00  0.00  0.00  0.00  0.99  0.00  0.00
  YD8-1.1                 1.00   1.00  0.00  0.00  0.00  0.00  0.00  0.00  0.00  0.00
  YD8-2.1                 1.00   1.00  0.00  0.00  0.00  0.00  0.00  0.00  0.00  0.00
  YD8.1                   1.00   0.01  0.00  0.00  0.99  0.00  0.00  0.00  0.79  0.00
  YD9.1                   1.00   0.01  0.00  0.00  0.99  0.00  0.00  0.00  0.64  0.00
  YD10.1                  1.00   0.01  0.00  0.00  0.99  0.00  0.00  0.00  0.84  0.00
  YD11.1                  1.00   0.01  0.00  0.00  0.09  0.00  0.00  0.90  0.00  0.00
  YD12.1                  1.00   0.00  0.00  0.00  1.00  0.00  0.00  0.00  0.19  0.00
  YD13.1                  1.00   0.00  0.00  0.00  1.00  0.00  0.00  0.00  0.30  0.00
  YD14.1                  1.00   0.00  0.00  0.00  1.00  0.00  0.00  0.00  0.19  0.00
  YD15.1                  1.00   0.00  0.00  0.00  0.00  0.00  0.00  1.00  0.00  0.00
  YD16.1                  1.00   0.00  0.00  0.00  1.00  0.00  0.00  0.00  0.38  0.00
  YD17.1                  1.00   0.00  0.00  0.00  1.00  0.00  0.00  0.00  0.34  0.00
  YD18.1                  1.00   0.00  0.00  0.00  1.00  0.00  0.00  0.00  0.25  0.00
  YD19-1.1                1.00   1.00  0.00  0.00  0.00  0.00  0.00  0.00  0.00  0.00
  YD19.1                  1.00   0.00  0.00  0.00  0.00  0.00  0.00  1.00  0.00  0.00
  YD20.1                  1.00   0.01  0.00  0.00  0.99  0.00  0.00  0.00  0.00  0.00
  YD21.1                  1.00   0.01  0.00  0.00  0.00  0.00  0.00  0.99  0.00  0.00
  YC12.1                  1.00   0.02  0.00  0.00  0.08  0.00  0.00  0.90  0.01  0.00
  YC11.1                  1.00   0.02  0.84  0.00  0.14  0.00  0.00  0.00  0.94  0.00
  YC10.1                  1.00   0.86  0.03  0.00  0.11  0.00  0.00  0.00  0.95  0.00
  YC9.1                   1.00   0.89  0.04  0.00  0.07  0.00  0.00  0.00  0.95  0.00
  YC9-2.1                 1.00   0.93  0.07  0.00  0.00  0.00  0.00  0.00  0.00  0.00
  YC9-1.1                 1.00   0.93  0.07  0.00  0.00  0.00  0.00  0.00  0.00  0.00
  YC8.1                   1.00   1.00  0.00  0.00  0.00  0.00  0.00  0.00  0.00  0.00
  YC7.1                   1.00   1.00  0.00  0.00  0.00  0.00  0.00  0.00  0.00  0.00
  YC6.1                   1.00   1.00  0.00  0.00  0.00  0.00  0.00  0.00  0.00  0.00
  YC5.1                   1.00   1.00  0.00  0.00  0.00  0.00  0.00  0.00  0.00  0.00
  YC4.1                   1.00   1.00  0.00  0.00  0.00  0.00  0.00  0.00  0.00  0.00
  YC4-2.1                 1.00   1.00  0.00  0.00  0.00  0.00  0.00  0.00  0.00  0.00
  YC4-1.1                 1.00   1.00  0.00  0.00  0.00  0.00  0.00  0.00  0.00  0.00
  YC3.1                   1.00   1.00  0.00  0.00  0.00  0.00  0.00  0.00  0.00  0.00
  YC2.1                   1.00   1.00  0.00  0.00  0.00  0.00  0.00  0.00  0.00  0.00
  YC1.1                   1.00   1.00  0.00  0.00  0.00  0.00  0.00  0.00  0.00  0.00
  YB8.1                   1.00   1.00  0.00  0.00  0.00  0.00  0.00  0.00  0.00  0.00
  YB8-2.1                 1.00   1.00  0.00  0.00  0.00  0.00  0.00  0.00  0.00  0.00
  YB8-1.1                 1.00   1.00  0.00  0.00  0.00  0.00  0.00  0.00  0.00  0.00
  YB7.1                   1.00   1.00  0.00  0.00  0.00  0.00  0.00  0.00  0.00  0.00
  YB6.1                   1.00   1.00  0.00  0.00  0.00  0.00  0.00  0.00  0.00  0.00
  YB5.1                   1.00   1.00  0.00  0.00  0.00  0.00  0.00  0.00  0.00  0.00
  YB4.1                   1.00   1.00  0.00  0.00  0.00  0.00  0.00  0.00  0.00  0.00
  YB3.1                   1.00   1.00  0.00  0.00  0.00  0.00  0.00  0.00  0.00  0.00
  YB3-2.1                 1.00   1.00  0.00  0.00  0.00  0.00  0.00  0.00  0.00  0.00
  YB3-1.1                 1.00   1.00  0.00  0.00  0.00  0.00  0.00  0.00  0.00  0.00
  YB2.1                   1.00   1.00  0.00  0.00  0.00  0.00  0.00  0.00  0.00  0.00
  YB1.1                   1.00   1.00  0.00  0.00  0.00  0.00  0.00  0.00  0.00  0.00
  YA1-2.1                 1.00   1.00  0.00  0.00  0.00  0.00  0.00  0.00  0.00  0.00
  YA1-2.2                 1.00   1.00  0.00  0.00  0.00  0.00  0.00  0.00  0.00  0.00
  YA1.1                   1.00   1.00  0.00  0.00  0.00  0.00  0.00  0.00  0.00  0.00
  YA2.1                   1.00   1.00  0.00  0.00  0.00  0.00  0.00  0.00  0.00  0.00
  YA3.1                   1.00   0.83  0.04  0.00  0.13  0.00  0.00  0.00  0.95  0.00
  YA4.1                   1.00   0.02  0.82  0.00  0.17  0.00  0.00  0.00  0.95  0.00
  YA5.1                   1.00   0.01  0.00  0.00  0.07  0.00  0.00  0.92  0.00  0.00
  YB9.1                   1.00   1.00  0.00  0.00  0.00  0.00  0.00  0.00  0.00  0.00
  Y45.1                   1.00   0.01  0.00  0.00  0.99  0.00  0.00  0.00  0.00  0.00
  Y44.1                   1.00   0.01  0.00  0.00  0.99  0.00  0.00  0.00  0.29  0.00
  Y43.1                   1.00   0.01  0.00  0.00  0.99  0.00  0.00  0.00  0.58  0.00
  Y42.1                   1.00   0.00  0.00  0.00  1.00  0.00  0.00  0.00  0.45  0.00
  Y41.1                   1.00   0.00  0.00  0.00  1.00  0.00  0.00  0.00  0.45  0.00
  Y40.1                   1.00   0.00  0.00  0.00  1.00  0.00  0.00  0.00  0.45  0.00
  Y39.1                   1.00   0.00  0.00  0.00  1.00  0.00  0.00  0.00  0.49  0.00
  Y38.1                   1.00   0.00  0.00  0.00  1.00  0.00  0.00  0.00  0.40  0.00
  Y37.1                   1.00   0.00  0.00  0.00  1.00  0.00  0.00  0.00  0.45  0.00
  Y36.1                   1.00   0.01  0.00  0.00  0.16  0.00  0.00  0.83  0.00  0.00
  Y35.1                   1.00   0.01  0.00  0.00  0.99  0.00  0.00  0.00  0.58  0.00
  Y34.1                   1.00   0.00  0.00  0.00  1.00  0.00  0.00  0.00  0.59  0.00
  Y33.1                   1.00   0.00  0.00  0.00  1.00  0.00  0.00  0.00  0.56  0.00
  Y32.1                   1.00   0.00  0.00  0.00  1.00  0.00  0.00  0.00  0.55  0.00
  Y31.1                   1.00   0.00  0.00  0.00  1.00  0.00  0.00  0.00  0.60  0.00
  Y30.1                   1.00   0.00  0.00  0.00  1.00  0.00  0.00  0.00  0.54  0.00
  Y29.1                   1.00   0.00  0.00  0.00  1.00  0.00  0.00  0.00  0.58  0.00
  Y28.1                   1.00   0.01  0.00  0.00  0.16  0.00  0.00  0.82  0.00  0.00
  Y27.1                   1.00   0.01  0.00  0.00  0.98  0.00  0.00  0.00  0.85  0.00
  Y26.1                   1.00   0.01  0.00  0.00  0.99  0.00  0.00  0.00  0.64  0.00
  Y25.1                   1.00   0.01  0.00  0.00  0.99  0.00  0.00  0.00  0.66  0.00
  Y24.1                   1.00   0.01  0.00  0.00  0.99  0.00  0.00  0.00  0.65  0.00
  Y23.1                   1.00   0.01  0.00  0.00  0.99  0.00  0.00  0.00  0.65  0.00
  Y22.1                   1.00   0.01  0.00  0.00  0.99  0.00  0.00  0.00  0.64  0.00
  Y21.1                   1.00   0.00  0.00  0.00  1.00  0.00  0.00  0.00  0.64  0.00
  Y20.1                   1.00   0.00  0.00  0.00  1.00  0.00  0.00  0.00  0.65  0.00
  Y19.1                   1.00   0.00  0.00  0.00  1.00  0.00  0.00  0.00  0.65  0.00
  Y18.1                   1.00   0.00  0.00  0.00  1.00  0.00  0.00  0.00  0.66  0.00
  Y17.1                   1.00   0.00  0.00  0.00  1.00  0.00  0.00  0.00  0.62  0.00
  Y16.1                   1.00   0.00  0.00  0.00  0.32  0.00  0.00  0.67  0.00  0.00
  Y15.1                   1.00   0.00  0.01  0.00  0.99  0.00  0.00  0.00  0.76  0.00
  Y14.1                   1.00   0.01  0.00  0.00  0.05  0.00  0.00  0.94  0.00  0.00
  Y13.1                   1.00   0.01  0.00  0.00  0.99  0.00  0.00  0.00  0.94  0.00
  Y12.1                   1.00   0.01  0.00  0.00  0.99  0.00  0.00  0.00  0.77  0.00
  Y11.1                   1.00   0.00  0.00  0.00  1.00  0.00  0.00  0.00  0.68  0.00
  Y10.1                   1.00   0.00  0.00  0.00  1.00  0.00  0.00  0.00  0.77  0.00
  Y9.1                    1.00   0.00  0.00  0.00  1.00  0.00  0.00  0.00  0.75  0.00
  Y8.1                    1.00   0.00  0.00  0.00  1.00  0.00  0.00  0.00  0.75  0.00
  Y7.1                    1.00   0.00  0.00  0.00  1.00  0.00  0.00  0.00  0.76  0.00
  Y6.1                    1.00   0.00  0.00  0.00  1.00  0.00  0.00  0.00  0.76  0.00
  Y5.1                    1.00   0.00  0.72  0.00  0.28  0.00  0.00  0.00  0.89  0.00
  Y4.1                    1.00   0.72  0.13  0.00  0.15  0.00  0.00  0.00  0.95  0.00
  Y3.1                    1.00   0.85  0.07  0.00  0.08  0.00  0.00  0.00  0.96  0.00
  Y2.1                    1.00   0.92  0.08  0.00  0.00  0.00  0.00  0.00  0.00  0.00
  Y1.1                    1.00   1.00  0.00  0.00  0.00  0.00  0.00  0.00  0.00  0.00
  B1.1                    1.00   1.00  0.00  0.00  0.00  0.00  0.00  0.00  0.00  0.00
  B2.1                    1.00   1.00  0.00  0.00  0.00  0.00  0.00  0.00  0.00  0.00
  B3.1                    1.00   1.00  0.00  0.00  0.00  0.00  0.00  0.00  0.00  0.00
  B4.1                    1.00   1.00  0.00  0.00  0.00  0.00  0.00  0.00  0.00  0.00
  B5.1                    1.00   1.00  0.00  0.00  0.00  0.00  0.00  0.00  0.00  0.00
  B6.1                    1.00   0.95  0.05  0.00  0.00  0.00  0.00  0.00  0.00  0.00
  B7.1                    1.00   0.90  0.05  0.00  0.05  0.00  0.00  0.00  0.95  0.00
  B8.1                    1.00   0.86  0.04  0.00  0.10  0.00  0.00  0.00  0.95  0.00
  B9.1                    1.00   0.02  0.84  0.00  0.14  0.00  0.00  0.00  0.95  0.00
  B10.1                   1.00   0.02  0.00  0.00  0.08  0.00  0.00  0.90  0.01  0.00
  B11.1                   1.00   0.00  0.00  0.00  1.00  0.00  0.00  0.00  0.00  0.00
  B12.1                   1.00   0.00  0.00  0.00  1.00  0.00  0.00  0.00  0.12  0.00
  B13.1                   1.00   0.00  0.00  0.00  1.00  0.00  0.00  0.00  0.12  0.00
  B14.1                   1.00   0.00  0.00  0.00  1.00  0.00  0.00  0.00  0.10  0.00
  B15.1                   1.00   0.00  0.00  0.00  1.00  0.00  0.00  0.00  0.14  0.00
  B16.1                   1.00   0.00  0.00  0.00  1.00  0.00  0.00  0.00  0.14  0.00
  B17.1                   1.00   0.00  0.00  0.00  1.00  0.00  0.00  0.00  0.11  0.00
  B18.1                   1.00   0.01  0.00  0.00  0.99  0.00  0.00  0.00  0.00  0.00
  B19.1                   1.00   0.01  0.00  0.00  0.09  0.00  0.00  0.90  0.00  0.00
  B20.1                   1.00   0.00  0.00  0.00  1.00  0.00  0.00  0.00  0.23  0.00
  B21.1                   1.00   0.00  0.00  0.00  1.00  0.00  0.00  0.00  0.22  0.00
  B22.1                   1.00   0.00  0.00  0.00  1.00  0.00  0.00  0.00  0.23  0.00
  B23.1                   1.00   0.01  0.00  0.00  0.99  0.00  0.00  0.00  0.23  0.00
  B24.1                   1.00   0.01  0.00  0.00  0.99  0.00  0.00  0.00  0.22  0.00
  B25.1                   1.00   0.02  0.00  0.00  0.98  0.00  0.00  0.00  0.23  0.00
  B26.1                   1.00   0.02  0.00  0.00  0.98  0.00  0.00  0.00  0.21  0.00
  B27.1                   1.00   0.01  0.00  0.00  0.98  0.00  0.00  0.00  0.20  0.00
  B28.1                   1.00   0.01  0.01  0.00  0.99  0.00  0.00  0.00  0.20  0.00
  B29.1                   1.00   0.00  0.01  0.00  0.99  0.00  0.00  0.00  0.14  0.00
  B30.1                   1.00   0.00  0.00  0.00  1.00  0.00  0.00  0.00  0.19  0.00
  B31.1                   1.00   0.00  0.00  0.00  1.00  0.00  0.00  0.00  0.26  0.00
  B32.1                   1.00   0.00  0.01  0.00  0.99  0.00  0.00  0.00  0.18  0.00
  B3-1.1                  1.00   1.00  0.00  0.00  0.00  0.00  0.00  0.00  0.00  0.00
  B7-1.1                  1.00   0.95  0.05  0.00  0.00  0.00  0.00  0.00  0.00  0.00
  B15-1.1                 1.00   1.00  0.00  0.00  0.00  0.00  0.00  0.00  0.00  0.00
  B23-1.1                 1.00   1.00  0.00  0.00  0.00  0.00  0.00  0.00  0.00  0.00
  B26-1.1                 1.00   1.00  0.00  0.00  0.00  0.00  0.00  0.00  0.00  0.00
  A1.1                    1.00   1.00  0.00  0.00  0.00  0.00  0.00  0.00  0.00  0.00
  A2.1                    1.00   1.00  0.00  0.00  0.00  0.00  0.00  0.00  0.00  0.00
  A3.1                    1.00   1.00  0.00  0.00  0.00  0.00  0.00  0.00  0.00  0.00
  A4.1                    1.00   1.00  0.00  0.00  0.00  0.00  0.00  0.00  0.00  0.00
  A5.1                    1.00   1.00  0.00  0.00  0.00  0.00  0.00  0.00  0.00  0.00
  A6.1                    1.00   1.00  0.00  0.00  0.00  0.00  0.00  0.00  0.00  0.00
  A7.1                    1.00   1.00  0.00  0.00  0.00  0.00  0.00  0.00  0.00  0.00
  A8.1                    1.00   1.00  0.00  0.00  0.00  0.00  0.00  0.00  0.00  0.00
  A9.1                    1.00   1.00  0.00  0.00  0.00  0.00  0.00  0.00  0.00  0.00
  A10.1                   1.00   1.00  0.00  0.00  0.00  0.00  0.00  0.00  0.00  0.00
  A11.1                   1.00   0.00  0.00  0.00  1.00  0.00  0.00  0.00  0.18  0.00
  A12.1                   1.00   0.00  0.00  0.00  1.00  0.00  0.00  0.00  0.17  0.00
  A13.1                   1.00   0.00  0.00  0.00  1.00  0.00  0.00  0.00  0.18  0.00
  A14.1                   1.00   0.00  0.00  0.00  1.00  0.00  0.00  0.00  0.12  0.00
  A15.1                   1.00   0.00  0.00  0.00  1.00  0.00  0.00  0.00  0.19  0.00
  A16.1                   1.00   0.00  0.00  0.00  1.00  0.00  0.00  0.00  0.18  0.00
  A17.1                   1.00   0.00  0.00  0.00  1.00  0.00  0.00  0.00  0.15  0.00
  A18.1                   1.00   0.00  0.00  0.00  1.00  0.00  0.00  0.00  0.16  0.00
  A19.1                   1.00   0.00  0.00  0.00  0.99  0.00  0.00  0.00  0.13  0.00
  A20.1                   1.00   0.00  0.00  0.00  1.00  0.00  0.00  0.00  0.00  0.00
  A21.1                   1.00   0.00  0.00  0.00  1.00  0.00  0.00  0.00  0.04  0.00
  A22.1                   1.00   0.00  0.00  0.00  1.00  0.00  0.00  0.00  0.03  0.00
  A23.1                   1.00   0.00  0.00  0.00  1.00  0.00  0.00  0.00  0.03  0.00
  A24.1                   1.00   0.00  0.00  0.00  1.00  0.00  0.00  0.00  0.00  0.00
  A25.1                   1.00   0.00  0.00  0.00  1.00  0.00  0.00  0.00  0.02  0.00
  A26.1                   1.00   0.00  0.00  0.00  1.00  0.00  0.00  0.00  0.00  0.00
  A27.1                   1.00   0.00  0.00  0.00  1.00  0.00  0.00  0.00  0.00  0.00
  A28.1                   1.00   0.00  0.00  0.00  1.00  0.00  0.00  0.00  0.01  0.00
  A29.1                   1.00   0.01  0.00  0.00  0.99  0.00  0.00  0.00  0.01  0.00
  A30.1                   1.00   0.00  0.00  0.00  0.99  0.00  0.00  0.00  0.00  0.00
  A31.1                   1.00   0.00  0.00  0.00  1.00  0.00  0.00  0.00  0.00  0.00
  A32.1                   1.00   0.00  0.00  0.00  1.00  0.00  0.00  0.00  0.00  0.00
  A33.1                   1.00   0.00  0.00  0.00  1.00  0.00  0.00  0.00  0.00  0.00
  A34.1                   1.00   0.00  0.00  0.00  0.99  0.01  0.00  0.00  0.00  0.00
  A35.1                   1.00   0.00  0.00  0.00  0.18  0.00  0.00  0.82  0.00  0.00
  A36.1                   1.00   0.00  0.00  0.00  1.00  0.00  0.00  0.00  0.25  0.00
  A29-1.1                 1.00   0.04  0.00  0.00  0.07  0.00  0.00  0.89  0.00  0.00
  YV13.1                  1.00   0.00  0.00  0.00  1.00  0.00  0.00  0.00  0.00  0.00
  B20-1.1                 1.00   0.00  0.00  0.00  1.00  0.00  0.00  0.00  0.00  0.00
  A24-1.1                 1.00   0.03  0.00  0.00  0.08  0.00  0.00  0.89  0.00  0.00
  A37.1                   1.00   0.01  0.00  0.00  0.99  0.00  0.00  0.00  0.00  0.00
  A3-1.1                  1.00   1.00  0.00  0.00  0.00  0.00  0.00  0.00  0.00  0.00
  A7-1.1                  1.00   1.00  0.00  0.00  0.00  0.00  0.00  0.00  0.00  0.00
  A15-1.1                 1.00   1.00  0.00  0.00  0.00  0.00  0.00  0.00  0.00  0.00
  B30-1.1                 1.00   0.01  0.00  0.00  0.12  0.00  0.00  0.87  0.00  0.00
  B33.1                   1.00   0.00  0.00  0.00  1.00  0.00  0.00  0.00  0.12  0.00
  B33-1.1                 1.00   0.00  0.00  0.00  0.18  0.00  0.00  0.82  0.00  0.00
  A35-1.1                 1.00   0.01  0.00  0.00  0.07  0.00  0.00  0.92  0.00  0.00
  YA1-1.1                 1.00   1.00  0.00  0.00  0.00  0.00  0.00  0.00  0.00  0.00
  YJ12-1.1                1.00   1.00  0.00  0.00  0.00  0.00  0.00  0.00  0.00  0.00
  
  
  *************************
  Conduit Surcharge Summary
  *************************
  
  No conduits were surcharged.
  

  Analysis begun on:  Sat Feb 23 19:55:17 2019
  Analysis ended on:  Sat Feb 23 19:56:00 2019
  Total elapsed time: 00:00:43